VERS 00000001 4
HEAD 00000e4d <?xml version="1.0"?>
<?xml-stylesheet type="text/xsl" href="/resources/transform.xslt"?><header><componentName>correlator</componentName><version>5.1.0.0</version><build>rel/5.1.0.x@217480</build><buildPlatform>amd64-win64-msvc9</buildPlatform><platform>Windows Server 2008 R2 (Service Pack 1)</platform><cputype>AuthenticAMD family 15 model 8 stepping 0 Six-Core AMD Opteron(tm) Processor 2427</cputype><cpus>4</cpus><javaEnabled>true</javaEnabled><replayLogMode>replayLog</replayLogMode><args><arg>C:\SoftwareAG\Apama 5.1\bin\correlator.exe</arg><arg>--logQueueSizePeriod</arg><arg>0</arg><arg>--port</arg><arg>15903</arg><arg>--loglevel</arg><arg>INFO</arg><arg>--name</arg><arg>Apama Studio Correlator for Prosoft_IW2015(Prosoft_IW2015:Default Correlator)</arg><arg>-j</arg><arg>--jmsConfig</arg><arg>C:\SoftwareAG\ApamaWork_5.1\studio_workspace\.metadata\.plugins\org.eclipse.core.resources\.projects\Prosoft_IW2015\com.apama.text\JMS_Correlator-Integrated_Adapter</arg><arg>--replayLog</arg><arg>logs/Default_Correlator_${START_TIME}_${ID}.replay.log</arg></args><environment><variable>ALLUSERSPROFILE=C:\ProgramData</variable><variable>APAMA_HOME=C:\SoftwareAG\Apama 5.1</variable><variable>APAMA_WORK=C:\SoftwareAG\ApamaWork_5.1</variable><variable>APPDATA=C:\Users\Administrator\AppData\Roaming</variable><variable>CLIENTNAME=PTGHP450-YD</variable><variable>COMMONPROGRAMFILES=C:\Program Files\Common Files</variable><variable>COMMONPROGRAMFILES(X86)=C:\Program Files (x86)\Common Files</variable><variable>COMMONPROGRAMW6432=C:\Program Files\Common Files</variable><variable>COMPUTERNAME=WMSERVER11</variable><variable>COMSPEC=C:\Windows\system32\cmd.exe</variable><variable>FP_NO_HOST_CHECK=NO</variable><variable>HOMEDRIVE=C:</variable><variable>HOMEPATH=\Users\Administrator</variable><variable>LOCALAPPDATA=C:\Users\Administrator\AppData\Local</variable><variable>LOGONSERVER=\\WMSERVER11</variable><variable>NUMBER_OF_PROCESSORS=4</variable><variable>OS=Windows_NT</variable><variable>PATH=C:\SoftwareAG\Apama 5.1\third_party\jre\bin\server;C:\SoftwareAG\Apama 5.1\third_party\jre\bin;C:\SoftwareAG\Apama 5.1\third_party\jre\lib\amd64\server;C:\SoftwareAG\Apama 5.1\third_party\jre\lib\amd64;C:\SoftwareAG\Apama 5.1\bin;C:\ProgramData\Oracle\Java\javapath;C:\Windows\system32;C:\Windows;C:\Windows\System32\Wbem;C:\Windows\System32\WindowsPowerShell\v1.0\</variable><variable>PATHEXT=.COM;.EXE;.BAT;.CMD;.VBS;.VBE;.JS;.JSE;.WSF;.WSH;.MSC</variable><variable>PROCESSOR_ARCHITECTURE=AMD64</variable><variable>PROCESSOR_IDENTIFIER=AMD64 Family 16 Model 8 Stepping 0, AuthenticAMD</variable><variable>PROCESSOR_LEVEL=16</variable><variable>PROCESSOR_REVISION=0800</variable><variable>PROGRAMDATA=C:\ProgramData</variable><variable>PROGRAMFILES=C:\Program Files</variable><variable>PROGRAMFILES(X86)=C:\Program Files (x86)</variable><variable>PROGRAMW6432=C:\Program Files</variable><variable>PROMPT=$P$G</variable><variable>PSMODULEPATH=C:\Windows\system32\WindowsPowerShell\v1.0\Modules\</variable><variable>PUBLIC=C:\Users\Public</variable><variable>SESSIONNAME=RDP-Tcp#0</variable><variable>SYSTEMDRIVE=C:</variable><variable>SYSTEMROOT=C:\Windows</variable><variable>TEMP=C:\Users\ADMINI~1\AppData\Local\Temp\2</variable><variable>TMP=C:\Users\ADMINI~1\AppData\Local\Temp\2</variable><variable>USERDOMAIN=WMSERVER11</variable><variable>USERNAME=Administrator</variable><variable>USERPROFILE=C:\Users\Administrator</variable><variable>WINDIR=C:\Windows</variable><variable>WINDOWS_TRACING_FLAGS=3</variable><variable>WINDOWS_TRACING_LOGFILE=C:\BVTBin\Tests\installpackage\csilogfile.log</variable></environment><version>5.1.0.0</version></header>
RAND 0000000a 1558148619
CONN 00000027 6204798214788642569/3955614762 from R01
CONN 00000036 6204798214788642569/3482309487 from internal:R:control
CONN 00000027 6204798214788642569/1865318693 from S01
TIME 00000010 1444667162.674,1
CONN 0000003c 4820200116960102775/4820200116960102775 from 127.0.0.1:51720
TIME 0000000e 1444667163.1,1
MONF 00000f0b //*****************************************************************************
// Title:         DashboardSupport.mon
// Description:   Monitor defining events to be sent when a client connects
//                or disconnects from a dashboard.  The monitor also provides
//                multi-context support for the connect/disconnect events.
// Dependencies:  None
// $Copyright(c) 2010 Progress Software Corporation (PSC). All rights reserved.$
// $Copyright (c) 2013 Software AG, Darmstadt, Germany and/or Software AG USA Inc., Reston, VA, USA, and/or Terracotta Inc., San Francisco, CA, USA, and/or Software AG (Canada) Inc., Cambridge, Ontario, Canada, and/or, Software AG (UK) Ltd., Derby, United Kingdom, and/or Software A.G. (Israel) Ltd., Or-Yehuda, Israel and/or their licensors.$
// Use, reproduction, transfer, publication or disclosure is prohibited except as specifically provided for in your License Agreement with Software AG
//
//*****************************************************************************

package com.apama.dashboard;


event DashboardClientConnected {
	string userName;
	string sessionId;
	dictionary<string,string> extraParams;
}

event DashboardClientDisconnected {
	string userName;
	string sessionId;
	dictionary<string,string> extraParams;
}

// Events to support parallel execution (contexts)

event RegisterContextForDashboardClientConnections {
	context instanceContext;
}

event DeregisterContextForDashboardClientConnections {
	context instanceContext;
}


/**
 * This monitor provides the context forwarders needed to allow
 * the Dashboard connect and disconnect notification events to be sent to
 * the registered contexts.
 * The notifications are always sent to the main context.
 */
monitor DashboardSupport
{
	// Used to persist contexts interested in notifications
	sequence < context > notifyContexts;

	action onload {
		
		log "Loaded Dashboard Client Connect Notification service" at INFO;
		
		// Forwarders to support parallel execution (contexts)
		setupContextForwarders();
		
	}
	
	action setupContextForwarders()
	{

		DashboardClientConnected connect;
		on all DashboardClientConnected(): connect {
			log "Dashboard Client Connected - User:" + connect.userName +
				"  Session:" + connect.sessionId at DEBUG;
			if notifyContexts.size() > 0 then {
				context ctx;
				for ctx in notifyContexts {
					enqueue connect to ctx;
				}
			}
		}

		DashboardClientDisconnected disconnect;
		on all DashboardClientDisconnected(): disconnect {
			log "Dashboard Client Disconnected - User:" + disconnect.userName +
				"  Session:" + disconnect.sessionId at DEBUG;
			if notifyContexts.size() > 0 then {
				context ctx;
				for ctx in notifyContexts {
					enqueue disconnect to ctx;
				}
			}
		}
		
		RegisterContextForDashboardClientConnections regCtx;
		on all RegisterContextForDashboardClientConnections():regCtx registerCtx(regCtx.instanceContext);
	
		DeregisterContextForDashboardClientConnections deregCtx;
		on all DeregisterContextForDashboardClientConnections():deregCtx deregisterCtx(deregCtx.instanceContext);
	}
	
	action registerCtx(context ctx)
	{		
		notifyContexts.append(ctx);
	}

	action deregisterCtx(context ctx)
	{
		if notifyContexts.size() > 0 then {
			integer ctxId := notifyContexts.indexOf(ctx);
			if ctxId >= 0 then {
				notifyContexts.remove(ctxId);
			}
		}
	}

	action ondie() {
		if (notifyContexts.size() != 0) then {
			log "ondie: Dashboard Support service is terminating but there may still be contexts subscribed to dashboard connect events" at ERROR;
		}
		else {
			log "ondie: Dashboard Support service is terminating" at INFO;
		}
	}

	action onunload {
		log "Unloaded Dashboard Support service" at INFO;
	}


}
 00000035 C:\SoftwareAG\Apama 5.1\monitors\DashboardSupport.mon
RMDT 00000015 &INPUT(1,5,true,true)
MONF 000048c2 package com.apama.dataview;

/*
 * $Copyright(c) 2007, 2008 Progress Software Corporation (PSC). All rights reserved.$
 * $Copyright (c) 2013 Software AG, Darmstadt, Germany and/or Software AG USA Inc., Reston, VA, USA, and/or Terracotta Inc., San Francisco, CA, USA, and/or Software AG (Canada) Inc., Cambridge, Ontario, Canada, and/or, Software AG (UK) Ltd., Derby, United Kingdom, and/or Software A.G. (Israel) Ltd., Or-Yehuda, Israel and/or their licensors.$
 * Use, reproduction, transfer, publication or disclosure is prohibited except as specifically provided for in your License Agreement with Software AG
 */


/* This is the definition the Apama DataViewService API.
 *
 * Several implementations of this interface will exist. 
 * Each implementation is in a separate file - inject the one you wish to use.
 *   e.g. DataViewService_Impl_Dict.mon
 * 
 * This service enables MonitorScript or JMon applications to expose a simple 
 * read-only "DataView" interface. DataViews may be viewed using Apama Dashboard 
 * Studio in a similar way to Scenarios.
 *
 * Route vs. Emit
 * The standard implementations of the DataViewService will always ROUTE 
 * any com.apama.dataview.* events, with the expectation that applications
 * using the service are co-located in the same correlator as the service.
 * If your architecture requires the client application to be in a separate 
 * correlator to the DataView service, then two "emitter" monitors are 
 * available.
 * DataViewService_ServiceEmitter.mon  would be injected into the same 
 * correlator as the DataView service after injecting the DataViewService 
 * interface but before injecting the implementation.
 * DataViewService_ApplicationEmitter.mon  would be injected into the same 
 * correlator as the client application after injecting the DataViewService 
 * interface but before injecting the client application.
 * 
 *
 * Notes:
 * 
 * 1) Every event has an initial field called msgId. Clients may choose to put 
 *    some identifier in this field when sending messages to the service. Any 
 *    event routed by the service in response will contain the same identifier.
 *
 * 2) Most events contain a field called "dvName". This string 
 *    uniquely identifies a DataView inside the correlator. 
 *
 * 3) Every event has a final field called extraParams that is a string:string
 *    dictionary. Some implementations may choose to use this field. It provides
 *    a way of future-proofing the interface to a certain extent.
 *
 * $Revision: 215887 $
 */





/* ==========================================================================
 * ==========================================================================
 * Events to send to the DataViewService to manage the DataView schemas
 * ==========================================================================
 * ========================================================================== */


/* Define a new DataView type.
 * Expect either a DataViewDefinition or a DataViewException in response.
 *
 * See also: DataViewDefinition() DataViewException(), DataViewAddItem()
 *
 * Direction: From the customer Monitor to the DataViewService.
 */
event DataViewAddDefinition {
	string msgId;                   // [OPTIONAL] A messageId that applications may choose to use to identify "responses".
	string dvName;			        // The DataView Name (e.g. conventionally DataView_XXX)
	string dvDisplayName;		    // The display name of the DataView (e.g. "XXX manager")
	string dvDescription;		    // A description of the DataView (e.g. "This DataView exposes XXX objects")
	sequence<string> fieldNames;	// Names of any fields
	sequence<string> fieldTypes;	// One of: string, float, integer, boolean, enumeration (must match values in oNames)
	sequence<string> keyFields;     // [OPTIONAL] Names of field(s) whose values in an Item are to be combined to 
	                                //     make a unique key that may be used instead of a dvItemId
	
	dictionary<string, string> extraParams;  // [OPTIONAL] Some implementations may choose to make use of this field.
}


/* Remove an existing DataView type.
 *
 * Direction: From the customer Monitor to the DataViewService.
 *
 * Response: DataViewUnloaded()
 */
event DataViewDeleteDefinition {
	string msgId;                            // [OPTIONAL] A messageId that applications may choose to use to identify "responses".
	string dvName;                           // The DataView Name (e.g. conventionally DataView_XXX)
	dictionary<string, string> extraParams;  // [OPTIONAL] Some implementations may choose to make use of this field.
}


/* Request helper dictionary to facilitate sequence position lookup
 *    by field name.
 *
 * See also: DataViewFieldLookup()
 *
 * Direction: From the customer Monitor to the DataViewService.
 *
 * Response: DataViewFieldLookup()
 */
event DataViewGetFieldLookup {
	string msgId;                            // [OPTIONAL] A messageId that applications may choose to use to identify "responses".
	string dvName;                           // The DataView Name (e.g. conventionally DataView_XXX)
	dictionary<string, string> extraParams;  // [OPTIONAL] Some implementations may choose to make use of this field.
}



/* ==========================================================================
 * ==========================================================================
 * Events to send to the DataViewService to manage individual DataView Items
 * ==========================================================================
 * ========================================================================== */


/* Request that a new Item is added to a specific DataView.
*
* See also: DataViewItem()
*
* Direction: From the customer Monitor to the DataViewService.
*/
event DataViewAddItem {
	string msgId;                            // [OPTIONAL] A messageId that applications may choose to use to identify "responses".
	string dvName;                           // the unique name of the DataView
	string owner;                            // the owner (user) of the Item.
	float timeStamp;                         // the timestamp of the initial update (seconds since epoch). If the value given is -1.0 then the service will populate it using correlator currentTime.
	sequence<string> fieldValues;            // complete sequence of field values in string form
	dictionary<string, string> extraParams;  // [OPTIONAL] Some implementations may choose to make use of this field.
}


/* Request that a new Item is added to a specific DataView if it does not already exist, 
* or is updated when it does exist. This will ONLY work when keyFields are used.
* Attempts to change the owner of an existing item will be rejected with a DataViewItemException.
*
* See also: DataViewItem()
*
* Direction: From the customer Monitor to the DataViewService.
*/
event DataViewAddOrUpdateItem {
	string msgId;                            // [OPTIONAL] A messageId that applications may choose to use to identify "responses".
	string dvName;                           // the unique name of the DataView
	string owner;                            // the owner (user) of the Item - ONLY used for new items.
	float timeStamp;                         // the timestamp of the initial update (seconds since epoch). If the value given is -1.0 then the service will populate it using correlator currentTime.
	sequence<string> fieldValues;            // complete sequence of field values in string form
	dictionary<string, string> extraParams;  // [OPTIONAL] Some implementations may choose to make use of this field.
}


/* Contains updated DataView Item fields.
 * Use this to update the fields.
 *
 * Direction: From the customer Monitor to the DataViewService.
 *
 */
event DataViewUpdateItem { 
	string msgId;                            // [OPTIONAL] A messageId that applications may choose to use to identify "responses".
	string dvName;                           // the unique name of the DataView
	integer dvItemId;                        // the ID of the Item within the DataView (may be -1 if using keyFields instead)
	float timeStamp;                         // the timestamp of the update (seconds since epoch). If the value given is -1.0 then the service will populate it using correlator currentTime.
	sequence<string> fieldValues;            // sequence of field values in string form
	dictionary<string, string> extraParams;  // [OPTIONAL] Some implementations may choose to make use of this field.
}


/* Contains updated DataView Item fields.
 * Use this to update the fields.
 *
 * Direction: From the customer Monitor to the DataViewService.
 *
 */
event DataViewUpdateItemDelta { 
	string msgId;                            // [OPTIONAL] A messageId that applications may choose to use to identify "responses".
	string dvName;                           // the unique name of the DataView
	integer dvItemId;                        // the ID of the Item within the DataView (may be -1 if using keyFields instead)
	float timeStamp;                         // the timestamp of the update (seconds since epoch). If the value given is -1.0 then the service will populate it using correlator currentTime.
	dictionary<integer,string> fieldValues;  // values to be updated. Dictionary Key is index into fields sequence, Value is new field value in sequence. 
	                                         // If not using dvItemId, then the dictionary MUST contain the key values (even though they have not changed)
	dictionary<string, string> extraParams;  // [OPTIONAL] Some implementations may choose to make use of this field.
}


/* Request that a specific Item within a specific DataView is deleted.
 *
 * See also: DataViewItemDeleted()
 *
 * Direction: From the customer Monitor to the DataViewService.
 */
event DataViewDeleteItem {
	string msgId;                            // [OPTIONAL] A messageId that applications may choose to use to identify "responses".
	string dvName;                           // the unique name of the DataView
	integer dvItemId;                        // the ID of the Item within the DataView (may be -1 if using keyFields instead)
	sequence<string> keyFields;              // [OPTIONAL] sequence of ONLY key field values (if not using the dvItemId)
	dictionary<string, string> extraParams;  // [OPTIONAL] Some implementations may choose to make use of this field.
}


/* Request that all Items within a specific DataView are deleted.
 *
 * See also: DataViewAllItemsDeleted()
 *
 * Direction: From the customer Monitor to the DataViewService.
 */
event DataViewDeleteAllItems {
	string msgId;                            // [OPTIONAL] A messageId that applications may choose to use to identify "responses".
	string dvName;                           // the unique name of the DataView
	dictionary<string, string> extraParams;  // [OPTIONAL] Some implementations may choose to make use of this field.
}


/* ==========================================================================
 * ==========================================================================
 * Events to that are callbacks from DatavViewService
 * ==========================================================================
 * ========================================================================== */


/** Confirmation that a specific DataView definition has been added.
 *
 * See also: DataViewAddDefinition()
 *
 * Direction: From the DataViewService to the customer Monitor.
 */
event DataViewDefinition {
	string msgId;                            // [OPTIONAL] A messageId that applications may choose to use to identify "responses".
	string dvName;                           // the unique name of the DataView
	string dvDisplayName;		             // The display name of the DataView (e.g. "XXX manager")
	string dvDescription;		             // A description of the DataView (e.g. "This DataView exposes XXX objects")
	sequence<string> fieldNames;	         // Names of any fields
	sequence<string> fieldTypes;             // One of: string, float, integer, boolean, enumeration (must match values in oNames)
	sequence<string> keyFields;              // [OPTIONAL] Names of field(s) whose values in an Item are to be combined to 
	                                         //     make a unique key that may be used instead of a dvItemId
	dictionary<string, string> extraParams;  // [OPTIONAL] Some implementations may choose to make use of this field.
}


/* Indicates that a specific DataView definition is being unloaded.
 *
 * Direction: From the DataViewService to the customer Monitor.
 */
event DataViewDefinitionDeleted { 
	string msgId;                            // [OPTIONAL] A messageId that applications may choose to use to identify "responses".
	string dvName;                           // the unique name of the DataView
	dictionary<string, string> extraParams;  // [OPTIONAL] Some implementations may choose to make use of this field.
}


/* Notifies all interested clients that a new Item has been added to a specific 
 * DataView. 
 * The event provides the unique itemID, owner (user), and initial values for 
 * all fields.
 *
 * See also: DataViewAddItem()
 *
 * Direction: From the DataViewService to the customer Monitor.
 *
 */
event DataViewItem { 
	string msgId;                            // [OPTIONAL] A messageId that applications may choose to use to identify "responses".
	string dvName;                           // the unique name of the DataView
	integer dvItemId;                        // the ID of the Item within the DataView
	string owner;                            // the owner (user) of the Item.
	sequence<string> fieldValues;            // sequence of field values in string form
	dictionary<string, string> extraParams;  // [OPTIONAL] Some implementations may choose to make use of this field.
}


/* Notifies all interested clients that a specific Item within a specific 
 * DataView has been deleted.
 *
 * See also: DataViewDeleteItem()
 *
 * Direction: From the DataViewService to the customer Monitor.
 *
 */
event DataViewItemDeleted {
	string msgId;                            // [OPTIONAL] A messageId that applications may choose to use to identify "responses".
	string dvName;                           // the unique name of the DataView
	integer dvItemId;                        // the ID of the Item within the DataView
	sequence<string> keyFields;              // sequence of ONLY key field values (for those not using the dvItemId)
	dictionary<string, string> extraParams;  // [OPTIONAL] Some implementations may choose to make use of this field.
}


/* Notifies all interested clients that all Items within a specific 
 * DataView have been deleted.
 *
 * See also: DataViewDeleteAllItems()
 *
 * Direction: From the DataViewService to the customer Monitor.
 *
 */
event DataViewAllItemsDeleted {
	string msgId;                            // [OPTIONAL] A messageId that applications may choose to use to identify "responses".
	string dvName;                           // the unique name of the DataView
	dictionary<string, string> extraParams;  // [OPTIONAL] Some implementations may choose to make use of this field.
}


/* The helper dictionary to facilitate sequence position lookup
 *    by field name.
 *
 * See also: DataViewGetFieldLookup()
 *
 * Direction: From the DataViewService to the customer Monitor.
 */
event DataViewFieldLookup {
	string msgId;                            // [OPTIONAL] A messageId that applications may choose to use to identify "responses".
	string dvName;                           // The DataView Name (e.g. conventionally DataView_XXX)
	dictionary <string, integer> fields;     // A map of fieldName:fieldIndex
	dictionary<string, string> extraParams;  // [OPTIONAL] Some implementations may choose to make use of this field.
}


/* Indicates that an exception occurred within the DataViewService, and indicates 
* the name of the specific DataView.
*
* Direction: From the DataViewService to the customer Monitor.
*/
event DataViewException {
	string msgId;                            // [OPTIONAL] A messageId that applications may choose to use to identify "responses".
	string dvName;                           // the unique name of the DataView
	wildcard string message;                 // The message in the exception. This is designed to be human readable, and may change between implementations/versions, hence the wildcard.
	dictionary<string, string> extraParams;  // [OPTIONAL] Some implementations may choose to make use of this field.
}

/* Indicates that an exception occurred within the DataViewService, and indicates 
* the name of the specific DataView, and the Id of the specific Item.
*
* Direction: From the DataViewService to the customer Monitor.
*/
event DataViewItemException {
	string msgId;                            // [OPTIONAL] A messageId that applications may choose to use to identify "responses".
	string dvName;                           // the unique name of the DataView
	integer dvItemId;                        // the ID of the Item within the DataView
	wildcard string message;                 // The message in the exception. This is designed to be human readable, and may change between implementations/versions, hence the wildcard.
	dictionary<string, string> extraParams;  // [OPTIONAL] Some implementations may choose to make use of this field.
}


/* Indicates that the DataView service is being unloaded.
 *
 * Direction: From the DataViewService to the customer Monitor.
 */
event DataViewServiceUnloaded { 
	dictionary<string, string> extraParams;  // [OPTIONAL] Some implementations may choose to make use of this field.
}


monitor DataViewService_Interface {
	// MetaData relating to the interface
	dictionary<string,string> interfaceMetaData := {
		"interface.package"     :"com.apama.dataview",
		"interface.name"        :"DataViewService_Interface",
		"interface.fileName"    :"DataViewService_Interface.mon",
		"interface.vendor"      :"Apama",
		"interface.version"     :"5.1.0.0",
		"interface.fullVersion" :"rel/5.1.0.x@217480",
		"interface.language"    :"MonitorScript"
	};

	action onload {
		log "DataViewService interface loaded. MetaData: "+interfaceMetaData.toString() at INFO;
	}
}

 0000003e C:\SoftwareAG\Apama 5.1\monitors\DataViewService_Interface.mon
RMDT 00000016 &INPUT(1,19,true,true)
TIME 0000000e 1444667163.5,1
MONF 00012470 package com.apama.scenario;

/**
 * This file contains the shared event definitions that are generic across 
 * all Scenarios.  
 *
 * WARNING: 
 *    The event definitions contained in this file form an internal protocol 
 *    and may change between software releases.
 *
 * Notes:
 * 1) The Event definitions contained in this file MUST be considered
 *    as an internal implementation of the communications protocol
 *    between the Apama client API and an Apama server.  As such
 *    these event definitions MUST NOT be considered "stable" and are 
 *    subject to change in any future software release.
 *
 *    The ONLY supported public APIs to the Scenario Service are the 
 *    Java client API (in the com.apama.services.scenario package) and the 
 *    .NET client API (in the Apama.Services.Scenario namespace).  
 *    Customers should not attempt to interface at the event or 
 *    EPL layer. Some events have been changed over time (as 
 *    noted here).
 *
 * 2) Most events now contain an initial field called "scenarioId". This string 
 *    uniquely identifies a scenario inside the correlator, and is used as 
 *    the package name, in several events, and for making up a part of the 
 *    data and control channel names.
 *
 * 3) Events that are intended to be used in a request-response pattern contain
 *    a "messageId" field.  The value of this field must be copied from the 
 *    request event into the response event. The mechanism allows clients to 
 *    match up request-response pairs.
 *
 *
 * $Copyright(c) 2005-2011 Progress Software Corporation (PSC). All rights reserved.$
 * $Copyright (c) 2013 Software AG, Darmstadt, Germany and/or Software AG USA Inc., Reston, VA, USA, and/or Terracotta Inc., San Francisco, CA, USA, and/or Software AG (Canada) Inc., Cambridge, Ontario, Canada, and/or, Software AG (UK) Ltd., Derby, United Kingdom, and/or Software A.G. (Israel) Ltd., Or-Yehuda, Israel and/or their licensors.$
 * Use, reproduction, transfer, publication or disclosure is prohibited except as specifically provided for in your License Agreement with Software AG
 *
 * $Revision: 216311 $
 */

/**
 * Request that a new instance of a specific scenario is created.
 *
 * See also: Created(), Acknowledge()
 *
 * Direction: From the client to the correlator.
 *
 * Response: Acknowledge()
 */
event Create {
	string scenarioId;                   // the unique name of the scenario
	integer messageId;                   // the unique message ID (for request-response matching)
	string owner;                        // the owner (user) of the instance.
	sequence<string> inputFieldValues;   // sequence of INPUT field values in string form
}


/**
 * Notifies all interested clients that a new instance of a specific 
 * scenario has been created. 
 * The event provides the owner (user), initial state, and initial values for 
 * all input fields and all output fields.
 *
 * See also: Create()
 *
 * Direction: From the correlator to the client.
 *
 * Channel: <scenarioId>.Data and <scenarioId>.Data.Raw
 */
event Created { 
	string scenarioId;                   // the unique name of the scenario
	integer messageId;                   // the unique message ID (for request-response matching)
	integer scenarioInstanceId;          // the ID of the scenario instance
	string owner;                        // the owner (user) of the instance.
	string state;                        // the initial state of the instance.
	sequence<string> inputFieldValues;   // sequence of INPUT field values in string form
	sequence<string> outputFieldValues;  // sequence of OUTPUT field values in string form
}


/**
 * Notifies the interested clients of child scenarios created from
 * a parent scenario.
 *
 * Direction: Internal in the correlator
 *
 * Channel: <none>
 */
event ParentChildRelationship {
	string parentScenarioId;
	integer parentScenarioInstanceId;
	string childScenarioId;
	integer childScenarioInstanceId;
}


/**
 * Request that a specific instance of a specific scenario is edited (the input 
 * field values are changed).
 *
 * See also: Edited(), Acknowledge()
 *
 * Direction: From the client to the correlator.
 *
 * Response: Acknowledge()
 */
event Edit { 
	string scenarioId;                   // the unique name of the scenario
	integer messageId;                   // the unique message ID (for request-response matching)
	integer scenarioInstanceId;          // the ID of the scenario instance
	sequence<string> inputFieldValues;   // sequence of INPUT field values in string form
}


/**
 * Notifies all interested clients that a specific instance of a specific 
 * scenario has been edited (the input field values have changed).
 *
 * See also: Edit()
 *
 * Direction: From the correlator to the client.
 *
 * Channel: <scenarioId>.Data and <scenarioId>.Data.Raw
 */
event Edited { 
	string scenarioId;                   // the unique name of the scenario
	integer messageId;                   // the unique message ID (for request-response matching)
	integer scenarioInstanceId;          // the ID of the scenario instance
	sequence<string> inputFieldValues;   // sequence of INPUT field values in string form
	sequence<string> outputFieldValues;  // sequence of OUTPUT field values in string form
}


/**
 * Request that a specific instance of a specific scenario is deleted.
 *
 * See also: Deleted(), Acknowledge()
 *
 * Direction: From the client to the correlator.
 *
 * Response: Acknowledge()
 */
event Delete {
	string scenarioId;                   // the unique name of the scenario
	integer messageId;                   // the unique message ID (for request-response matching)
	integer scenarioInstanceId;          // the ID of the scenario instance
}


/**
 * Notifies all interested clients that a specific instance of a specific 
 * scenario has been deleted.
 *
 * See also: Delete()
 *
 * Direction: From the correlator to the client.
 *
 * Channel: <scenarioId>.Data and <scenarioId>.Data.Raw
 */
event Deleted {
	string scenarioId;                   // the unique name of the scenario
	integer messageId;                   // the unique message ID (for request-response matching)
	integer scenarioInstanceId;          // the ID of the scenario instance
}


/**
 * Indicates that a specific instance of a specific scenario has died.
 * This is emitted as a result of a scenario instance use of MonitorScript ondie.
 * This occurs for any of deleting a running scenario, a scenario failing, or 
 * entering the end state.
 *
 * Direction: From the correlator to the client.
 *
 * Channel: <scenarioId>.Data and <scenarioId>.Data.Raw
 */
event InstanceDied {
	string scenarioId;                   // the unique name of the scenario
	integer scenarioInstanceId;          // the ID of the scenario instance
}


/**
 * Contains updated scenario instance output fields.
 * Note that this is the ONLY event type that is emitted on the 
 * "<scenarioId>.Data" channel.
 *
 * Direction: From the correlator to the client.
 *
 * Channel: <scenarioId>.Data and <scenarioId>.Data.Raw
 */
event Update { 
	string scenarioId;                   // the unique name of the scenario
	integer scenarioInstanceId;          // the ID of the scenario instance
	float timeStamp;                     // the time of the update (seconds since epoch)
	sequence<string> outputFieldValues;  // sequence of OUTPUT field values in string form
}


/**
 * A general Acknowledgement event that is the "response" to various "request"
 * events such as Create, Edit, Delete.
 *
 * Direction: From the correlator to the client.
 *
 * Channel: <scenarioId>.Control
 */
event Acknowledge { 
	string scenarioId;                   // the unique name of the scenario
	integer messageId;                   // the unique message ID (for request-response matching)
	integer scenarioInstanceId;          // the id of the scenario instance
	boolean success;                     // boolean indication of success
	sequence<string> outputFieldValues;  // sequence of the OUTPUT field values in string form, 
	                                     //   or an empty sequence if success = false
}


/**
 * Indicates that a specific instance of a specific scenario has changed 
 * state, where valid states include "ENDED", "FAILED", "RUNNING".
 *
 * Direction: From the correlator to the client.
 *
 * Channel: <scenarioId>.Data and <scenarioId>.Data.Raw
 */
event StateChange { 
	string scenarioId;                   // the unique name of the scenario.
	integer scenarioInstanceId;          // the ID of the scenario instance.
	string state;                        // the new state.
}


/**
 * Request that each scenario loaded in the correlator send its meta
 * information out on the supplied channel. When all scenarios have
 * sent out this information, a final RequestScenariosDone event will
 * be sent on the same channel.
 *
 * As soon as this event is received, a RequestScenariosAck will be
 * sent on the same channel so client can stop resending the RequestScenarios
 * event.
 *
 * See also: Scenario, RequestScenariosDone, RequestScenariosAck
 *
 * Direction: From the client to the correlator.
 *
 * Response: Scenario() from each loaded scenario.
 */
event RequestScenarios { 
	// renamed for clarity - was Request
	string channel;                      // Name of the private response channel.
}


/**
 * This is a simple marker event that is sent by the correlator to indicate 
 * that it has finished sending all of the Scenario events in response
 * to a RequestScenarios event.
 * 
 * See also: RequestScenarios, Scenario.
 *
 * Direction: From the correlator to the client.
 *
 * Channel: The private channel that was specified in the RequestScenarios event.
 */
event RequestScenariosDone {}

/* This is a simple ack event that is sent by the correlator to indicate the
 * RequestScenarios event is received and the request is being processed
 *
 * See also: RequestScenarios
 *
 * Direction: From the correlator to the client.
 *
 * Channel: The private channel that was specified in the RequestScenarios event.
 */
event RequestScenariosAck {}

/**
 * Request that each instance of the specified scenario send an Instance event 
 * out on the supplied channel. When all instances for the scenario have been 
 * sent out, a final RequestInstancesDone event will be sent on the same channel.
 *
 * See also: Instance, RequestInstancesDone
 *
 * Direction: From the client to the correlator.
 *
 * Response: Instance() from each scenario instance.
 */
event RequestInstancesOnChannel { 
	string scenarioId;                   // Identifier of the scenario for which to return instances. 
	integer messageId;                   // the unique message ID (for request-response matching)
	string channel;                      // Name of the private response channel.
}

/**
 * Request that each instance for the specified user of the specified scenario
 * send an Instance event out on the supplied channel. When all instances for
 * the scenario have been sent out, a final RequestInstancesDone event will be 
 * sent on the same channel.
 *
 * See also: Instance, RequestInstancesDone
 *
 * Direction: From the client to the correlator.
 *
 * Response: Instance() from each scenario instance.
 */
event RequestInstancesOnChannelByUser { 
	string scenarioId;                   // Identifier of the scenario for which to return instances. 
	integer messageId;                   // the unique message ID (for request-response matching)
	string channel;                      // Name of the private response channel.
	string owner;                        // the username to filter by
}


/**
 * This is a simple marker event that is sent by the correlator to indicate 
 * that it has finished sending all of the Instance events in response
 * to a RequestInstancesInternal event.
 * 
 * See also: RequestInstancesInternal, Scenario.
 *
 * Direction: From the correlator to the client.
 *
 * Channel: A unique private channel as specified by the client in a 
 *          RequestScenariosOnChannel event.
 *
 *          Note that previously it would have been on <scenarioId>.Data and 
 *          <scenarioId>.Data.Raw, but that behaviour is now deprecated.
 */
event RequestInstancesDone {
	string scenarioId;                   // Identifier of the scenario for instances were returned. 	
	integer messageId;                   // the unique message ID (for request-response matching)
}


/**
 * Describes the meta-information about a scenario that is loaded in the 
 * correlator.
 * 
 * See also: RequestScenarios, RequestScenariosDone, ScenarioUnloaded
 * 
 * Direction: From correlator to client.
 *
 * Channel:   1) com.apama.scenario to broadcast when loaded.
 *            2) A unique private channel as specified by the client in a 
 *               RequestScenarios event.
 *
 * This event has gained the executionMode field in Apama 4.2
 */
event Scenario {
	string scenarioId;                   // unique identifier for Scenario, e.g. Scenario_statistical$002darbitrage
	string displayName;                  // user-specified name for Scenario, e.g. statistical-arbitrage
	string description;                  // description of the Scenario
	sequence<string> inputNames;         // input parameter names
	sequence<string> inputTypes;         // input parameter types
	sequence<string> inputConstraints;   // input parameter contraints
	sequence<string> inputDefaults;      // input parameter default values
	sequence<string> outputNames;        // output parameter names
	sequence<string> outputTypes;        // output parameter types
	integer executionMode;               // 0 = serial, 1 = parallel, 2 = parallel child. New as of 4.2
}



/**
 * Indicates that a specific Scenario definition is being unloaded.
 *
 * Direction: From the correlator to the client.
 *
 * Channel: <scenarioId>.Control
 */
event ScenarioUnloaded { 
	string scenarioId;                   // the unique name of the scenario
}

/**
 * Provides a dump of the current state of a scenario instance.
 * The event definition is identical to the Created event, and includes the 
 * owner (user), initial state, and current values for all input fields and 
 * all output fields.
 *
 * Instance events are sent in response to RequestInstancesOnChannel event 
 * and the deprecated RequestInstancesInternal event; 
 *
 * See also: RequestInstancesOnChannel, RequestInstancesDone, RequestInstancesInternal
 *
 * Direction: From the correlator to the client.
 *
 * Channel: A unique private channel as specified by the client in a 
 *          RequestScenariosOnChannel event.
 *
 *          Note that previously it would have been on <scenarioId>.Data and 
 *          <scenarioId>.Data.Raw, but that behaviour is now deprecated.
 */
event Instance {
	string scenarioId;                   // the unique name of the scenario. 
	integer messageId;                   // the unique message ID (for request-response matching)
	integer scenarioInstanceId;          // the ID of the scenario instance. 
	string owner;                        // the owner (user) of the instance.
	string state;                        // the initial state of the instance.
	sequence<string> inputFieldValues;   // sequence of INPUT field values in string form. 
	sequence<string> outputFieldValues;  // sequence of OUTPUT field values in string form. 
}


/**
 * Indicates this shared MonitorScript has been loaded.
 *
 * Direction: From the correlator to the client.
 *
 * Channel: com.apama.scenario to broadcast when loaded.
 */
event ScenarioServiceLoaded { 
}

/**
 * Indicates this shared MonitorScript is being unloaded.
 *
 * Direction: From the correlator to the client.
 *
 * Channel: com.apama.scenario to broadcast when unloaded.
 */
event ScenarioServiceUnloaded { 
}


/**
 * Set the period over which updates will be queued and coalesced before being
 * sent out on the data channel. Defaults to zero, which means they won't be
 * queued. If it is negative then we won't send any updates on the data channel.
 * This event is deprecated and the ConfigureUpdates event should be used 
 * instead (see below)
 */
event SetThrottlingPeriod {
	float period;   // The period in seconds. Default zero.
}


/**
 * Configures how updates are sent from scenarios.
 * Each scenario is controlled by two configurations - a global default,
 * and an optional per scenario configuration.  The per scenario
 * configuration takes precedence over the global default.
 * The configuration is made up of a number of entries in 
 * the configuration dictionary. The ConfigureUpdate event 
 * is merged into any previous configuration.
 *
 * Global configuration can be modified by specifying an empty string 
 * for scenarioId, and empty values remove values.
 */
event ConfigureUpdates {
	string scenarioId; // empty indicates a default 
	/** 
	 * A set of the configurations modified by this event
	 * the key and meaning is one of:
	 * sendThrottled - boolean - whether to send Updates to the 
	 *                           Throttled (.Data) channel (default=true)
	 * throttlePeriod - float - period with which to send Updates. 
	 *                          0.0 means updates are not throttled - 
	 *                          every update is sent on the Throttled 
	 *                          channel. (default=0.0)
	 * sendRaw - boolean - whether to send Updates on the Raw channel 
	 *                     (.Raw) (default=true)
 	 * sendThrottledUser - boolean - whether to send Updates to the 
	 *                     throttled filtered (.Data:username) channel
	 *                     (default=false)
 	 * sendRawUser - boolean - whether to send Updates to the Raw 
	 *                     channel (.Raw:username) (default=false)
	 * routeUpdate - boolean - whether to route Update (and Edited, Deleted) events.
	 * An empty value removes that entry from the configuration
	 */
	dictionary<string,string> configuration;
}

/**
 * Immediately flushes to receivers any scenario Update events that were 
 * waiting for the next throttling period before being sent. 
 * 
 */
event SendQueuedUpdatesNow {
	
}

/* ==========================================================================
 * The following describes INTERNAL event definitions that should not be sent 
 * into the correlator, nor relied upon.
 * ==========================================================================
 */

/**
 * Request that each instance of the specified scenario send an Instance event 
 * out on the scenario Data or Raw channel. When all instances for the scenario
 * have been sent out, a final RequestInstancesDone event will be sent on the 
 * same channel.
 *
 * See also: Instance, RequestInstancesDone, RequestInstancesOnChannel, RequestInstancesOnChannelByUser
 *
 * Direction: From the ScenarioService to the scenario
 *
 * Response: Instance() from each scenario instance, RequestInstancesDone when finished.
 */
event RequestInstancesInternal { 
	string scenarioId;                   // Identifier of the scenario for which to return instances. 
	integer messageId;                   // the unique message ID (for request-response matching)
	string channel;                      // Name of the private response channel.
	boolean internal;                    // if true, events should be routed/ enqueue-to'd the main context
	string owner;                        // owner filter (optional)
	boolean ownerFilter;                 // whether to filter by owner
}

/**
 * A scenario has finished running, but is still discoverable.
 * (i.e. entered end state or failed - but not deleted).
 * Note that this event contains the state as of the last
 * Update/ Edited event - i.e. if an action modified an output variable 
 * and then caused the scenario to fail, the prior modification
 * would not be reflected in this event.
 *
 * This event contains sufficient information for discovery of the
 * scenario instance later
 * 
 * Direction: from scenarios to the ScenarioService sub-monitor (spawned per scenario)
 */
event ScenarioFinished {
	string scenarioId;                   // Identifier of the scenario which has failed. 
	integer scenarioInstanceId;          // the ID of the scenario instance. 
	string owner;                        // the owner (user) of the instance.
	string state;                        // the initial state of the instance.
	sequence<string> inputFieldValues;   // sequence of INPUT field values in string form. 
	sequence<string> outputFieldValues;  // sequence of OUTPUT field values in string form. 
}
/**
 * Only used internally to tell all the scenarios to start routing their
 * meta data (Scenario). It is followed by a sweeper FinishedScenarioRecovery
 * event which indicates that all the scenarios have reported in.
 */
event StartScenarioRecovery {}

/**
 * Sweeper event to indicate that scenario recovery is done. Only used internally.
 */
event FinishedScenarioRecovery {}

/**
 * Trigger discovery of a parallel scenario. Sent from a sub-monitor of
 * ScenarioService to RequestInstancesHandler to create a new sub-monitor.
 */
event RequestInstancesParallel {
	RequestInstancesInternal request;          // the original request event
	dictionary<integer, context> instances;    // all scenario instances and their running context
	integer highestInstanceId;                 // the highest scenarioInstanceId listed in instances (or more accurately, the highest when discovery started)
}

/**
 * Discovery protocol of a parallel scenario. Sent from a scenario instance
 * to RequestInstancesHandler.
 */
event RequestInstancesParallelDone {
	string scenarioId;                   // the unique name of the scenario
	integer messageId;                   // the unique message ID (for request-response matching)
	integer scenarioInstanceId;          // the ID of the scenario instance
}

/**
 * Notification of a new scenario instance
 */
event ParallelStarting {
	string scenarioId;                   // the unique name of the scenario
	integer scenarioInstanceId;          // the ID of the scenario instance
	string owner;                        // the owner of the scenario instance
	context runningCtx;                  // the context the scenario is running in
}

/**
 * Get the current configuration for a given scenario and the default configuration
 */
event GetConfiguration {
	string scenarioId;                   // the unique name of the scenario
}

/**
 * The current configuration for a given scenario and the default configuration
 * @see ConfigureUpdates
 */
event Configuration {
	string scenarioId;                        // the unique name of the scenario
	dictionary<string, string> defaults;      // the global defaults
	dictionary<string, string> configuration; // the scenario configuration (takes precedence)
}


/**
 * An operation has completed. Sent from parallel scenarios to the main context.
 */
event OperationCompleted {
	string scenarioId;
	integer scenarioInstanceId;
	integer messageId;
}

/**
 * Notification that a scenario has loaded a ConfigureUpdates event
 */
event ScenarioProcessedUpdates {
	string scenarioId;
}

/**
 * Request all configuration
 */
event GetAllConfiguration {
	integer requestId;
}

/** 
 * Response all configuration
 */
event AllConfiguration {
	integer requestId;
	dictionary<string, string> defaultConfig;
	dictionary<string, dictionary<string, string> > configurations;
}


/**
 * Library of utiltiy actions
 */
event ScenarioServiceLibrary {

	/**
	 * Get the control channel for a scenario Id. This channel
	 * is always enabled (uses an event set scenario ID)
	 */
	action getControlChannel(string scenarioId) returns string
	{
		return scenarioId+".Control";
	}
	/**
	 * Get the data channel for a scenario ID. This channel 
	 * is enabled by the sendThrottled configuration key and 
	 * the throttlePeriod key (Update events may be throttled)
	 */
	action getDataChannel(string scenarioId) returns string
	{
		return scenarioId+".Data";
	}
	/**
	 * Get the raw channel for a scenario ID. This channel
	 * is enabled by the sendRaw configuration key.
	 */
	action getRawChannel(string scenarioId) returns string
	{
		return scenarioId+".Data.Raw";
	}
	/**
	 * Get the data channel for a scenario Id. This channel 
	 * is enabled by the sendThrottledUser configuration key and 
	 * the throttlePeriod key (Update events may be throttled)
	 */
	action getDataUserChannel(string channel, string owner) returns string
	{
		return channel+":"+owner;
	}
	/**
	 * Get the raw channel for a scenario Id. This channel
	 * is enabled by the sendRawUser configuration key.
	 */
	action getRawUserChannel(string channel, string owner) returns string
	{
		return channel+":"+owner;
	}
	
	/**
	 * Merge configuration. Any entries in updates overwrite entries in configuration.
	 * An empty string value removes the value.
	 * @see ConfigureUpdates
	 */
	action mergeConfiguration(dictionary<string, string> updates, dictionary<string, string> configuration) {
		string k;
		for k in updates.keys() {
			configuration[k]:=updates[k];
			if updates[k]="" then {
				configuration.remove(k);
			}
		}
	}
	
	// implementation note: the defaults for sendThrottled, sendRaw, throttlePeriod, etc are in the following actions:
	/**
	 * Get the sendThrottled value from the given configuration
	 * @see ConfigureUpdates
	 */
	action getSendThrottled(dictionary<string,string> defaults, dictionary<string,string> config) returns boolean {
		string c:=getConfig(defaults, config, "sendThrottled", "true");
		return c = "true";
	}

	/**
	 * Get the sendThrottledUser value from the given configuration
	 * @see ConfigureUpdates
	 */
	action getSendThrottledUser(dictionary<string,string> defaults, dictionary<string,string> config) returns boolean {
		string c:=getConfig(defaults, config, "sendThrottledUser", "false");
		return c = "true";
	}
	
	/**
	 * Get the sendRaw value from the given configuration
	 * @see ConfigureUpdates
	 */
	action getSendRaw(dictionary<string,string> defaults, dictionary<string,string> config) returns boolean {
		string c:=getConfig(defaults, config, "sendRaw", "true");
		return c = "true";
	}
	
	/**
	 * Get the sendRawUser value from the given configuration
	 * @see ConfigureUpdates
	 */
	action getSendRawUser(dictionary<string,string> defaults, dictionary<string,string> config) returns boolean {
		string c:=getConfig(defaults, config, "sendRawUser", "false");
		return c = "true";
	}
	
	/**
	 * Get the throttlePeriod value from the given configuration
	 * @see ConfigureUpdates
	 */
	action getThrottlePeriod(dictionary<string,string> defaults, dictionary<string,string> config) returns float {
		string c:=getConfig(defaults, config, "throttlePeriod", "0.0");
		return float.parse(c);
	}
	
	/**
	 * Get the routeUpdate value from the given configuration
	 * @see ConfigureUpdates
	 */
	action getRouteUpdate(dictionary<string,string> defaults, dictionary<string,string> config) returns boolean {
		string c:=getConfig(defaults, config, "routeUpdate", "false");
		return c = "true";
	}
	

	/**
	 * Get the specified key from the configuration dictionaries, reverting to the default 
	 * if none specified.
	 */
	action getConfig(dictionary<string,string> defaults,
	                 dictionary<string,string> config, 
	                 string key, string _default) returns string {
		if config.hasKey(key) then {
			return config[key];
		}
		if defaults.hasKey(key) then {
			return defaults[key];
		}
		return _default;
	}

	action configurationManager(dictionary<string, string> defaultConfig, dictionary<string, dictionary<string, string> > configurations) {
		// the recognised ConfigureUpdates configuration keys, as above:
		dictionary<string,boolean> KNOWN_CONFIG_KEYS := {"sendThrottled":true, "throttlePeriod":false,
		 "sendRaw":true, "sendThrottledUser":true, "sendRawUser":true, "routeUpdate":true};

		dictionary <string,string> EMPTY_DICT:=new dictionary<string,string>;
		ConfigureUpdates cu;
		on all ConfigureUpdates():cu {
			string key;
			for key in cu.configuration.keys() {
				if not KNOWN_CONFIG_KEYS.hasKey(key) then {
					log "Unrecognized configuration property "+key+" in event "+cu.toString() at WARN;
				}
			}
			if cu.scenarioId = "" then {
				mergeConfiguration(cu.configuration, defaultConfig);
				log "Received "+cu.toString()+" : defaults applicable to all scenarios" at INFO;
			} else {
				if not configurations.hasKey(cu.scenarioId) then {
					configurations.add(cu.scenarioId, new dictionary<string,string>);
				}
				mergeConfiguration(cu.configuration, configurations[cu.scenarioId]);
				on ScenarioProcessedUpdates(cu.scenarioId) -> completed ConfigureUpdates(scenarioId=cu.scenarioId) {
					log "Received "+cu.toString()+" : applied to scenario" at INFO;
				}
				on completed ConfigureUpdates(scenarioId=cu.scenarioId) and not ScenarioProcessedUpdates(cu.scenarioId) {
					log "Received "+cu.toString()+" : for scenario that is not yet defined" at INFO;
				}
			}
		}

		GetConfiguration getConfig;
		on all GetConfiguration():getConfig {
			dictionary<string,string> config:=EMPTY_DICT;
			if configurations.hasKey(getConfig.scenarioId) then {
				config:=configurations[getConfig.scenarioId];
			}
			route Configuration(getConfig.scenarioId, defaultConfig, config);
		}	
		GetAllConfiguration gac;
		on all GetAllConfiguration():gac {
			route AllConfiguration(gac.requestId, defaultConfig, configurations);
		}
	}
		
}

event CallbackHelper {
	sequence<action<> > callbacks;
	action callback {
		action<> c;
		for c in callbacks {
			c();
		}
	}
}



/**
 * Base event for tracking configuration for a given scenario
 */
event ScenarioServiceUpdaterBase {
	// these are internal and should not be set by users
	string scenarioId;
	dictionary<string,string> defaultConfig;
	dictionary<string,string> config;
	ScenarioServiceLibrary lib;
	boolean sendThrottled;
	boolean sendRaw;
	boolean sendAny;
	boolean emitAny;
	boolean sendThrottledUser;
	boolean sendRawUser;
	boolean routeUpdate;
	float throttlePeriod;
	float throttleStart;
	sequence<listener> listeners;
	string controlChannel;
	string rawChannel;
	string dataChannel;

	/**
	 * Called by monitor at onload time
	 * Will maintain configuration for this scenario
	 * @param sId the scenarioId
	 */
	action init(string sId, action<> cb_onUpdate) {
		scenarioId:=sId;
		controlChannel := lib.getControlChannel(scenarioId);
		rawChannel := lib.getRawChannel(scenarioId);
		dataChannel := lib.getDataChannel(scenarioId);
		route GetConfiguration(scenarioId);
		Configuration c;
		listener l:=on Configuration(scenarioId=scenarioId):c {
			config := c.configuration;
			defaultConfig := c.defaults;
			configurationUpdated();
			cb_onUpdate();
		}
		listeners.append(l);
	}

	/**
	 * Listen for further configuration changes.
	 * @param cb_onUpdate callback upon configuration having been updated
	 */	
	action listenToConfigureUpdates(action<> cb_onUpdate) {
		ConfigureUpdates cu;
		listener l:=on all ConfigureUpdates(scenarioId=""):cu or all ConfigureUpdates(scenarioId=scenarioId):cu {
			if(cu.scenarioId != "") then {
				route ScenarioProcessedUpdates(cu.scenarioId);
			}
			onConfigureUpdates(cu);
			cb_onUpdate();
		}
		listeners.append(l);
	}

	/**
	 * Called when new ConfigureUpdates event available
	 * @param sId the scenarioId
	 */
	action onConfigureUpdates(ConfigureUpdates cu) {
		if cu.scenarioId = "" then {
			lib.mergeConfiguration(cu.configuration, defaultConfig);
		} else {
			lib.mergeConfiguration(cu.configuration, config);
		}
		configurationUpdated();
	}
	
	/**
	 * Called when the configuration should be re-parsed.
	 * @param sId the scenarioId
	 */
	action configurationUpdated() {
		sendThrottled:=lib.getSendThrottled(defaultConfig, config);
		sendThrottledUser:=lib.getSendThrottledUser(defaultConfig, config);
		if sendThrottled or sendThrottledUser then {
			throttlePeriod:=lib.getThrottlePeriod(defaultConfig, config);
			if(throttlePeriod < 0.0) then {
				sendThrottled:=false;
				sendThrottledUser:=false;
			}
			throttleStart:=currentTime;
		}
		sendRaw:=lib.getSendRaw(defaultConfig, config);
		sendRawUser:=lib.getSendRawUser(defaultConfig, config);
		routeUpdate:=lib.getRouteUpdate(defaultConfig, config);
		sendAny:= sendRaw or sendThrottled or routeUpdate or sendRawUser or sendThrottledUser;
		emitAny:= sendRaw or sendThrottled or sendRawUser or sendThrottledUser;
	}

	/** 
	 * Get whether this scenario should send on the throttled (Data) channel
	 */
	action isSendThrottled() returns boolean {
		return sendThrottled or sendThrottledUser;
	}

	/** 
	 * Get whether this scenario should send on the raw channel
	 */
	action isSendRaw() returns boolean {
		return sendRaw or sendRawUser;
	}

	action doEmit(string emitted, string owner) {
		if sendRaw then {
			emit emitted to rawChannel;
		}
		if sendThrottled then {
			emit emitted to dataChannel;
		}
		if sendRawUser then {
			emit emitted to lib.getRawUserChannel(rawChannel, owner);
		}
		if sendThrottledUser then {
			emit emitted to lib.getDataUserChannel(dataChannel, owner);
		}
	}

	/**
 	 * Kill any listeners this object has started
	 */
	action destroy() {
		listener l;
		for l in listeners {
			l.quit();
		}
	}
}


/**
 * Utilitiy event for tracking configuration for a given scenario.
 * This event is suitable for use by monitors which spawn per instance
 * (e.g. Scenarios)
 * 
 * This event also uses a callback to get the updates (supplied in
 * instanceInit). If the scenario is configured to only send throttled 
 * updates, the callback is only called when the throttling period 
 * determines an update should be sent - thus, the scenario does not
 * need to generate the output sequence<string> except when needed,
 * which can improve performance in such a configuration.
 * 
 * actions starting with an underscore should be considered private 
 * and not called by users of this event.
 */
event ScenarioServiceUpdaterSingleInstance {
	// these are internal and should not be set by users
	string scenarioId;
	integer scenarioInstanceId;
	ScenarioServiceLibrary lib;
	listener throttlingListener;
	ScenarioServiceUpdaterBase base;
	boolean havePending;
	float latestUpdate;
	action<> returns sequence<string> getUpdate;
	Update update;
	boolean needUpdate;
	context mainContext;
	string owner;
	string controlChannel;
	string rawChannel;
	string dataChannel;

	/**
	 * Called by monitor at onload time
	 * Will maintain configuration for this scenario
	 */
	action init(string sId) {
		init_cb(sId, _noopAction);
	}
	
	/**
	 * Called by monitor at onload time
	 * Will maintain configuration for this scenario.
	 * cb_init is called when initialisation is complete
	 */
	action init_cb(string sId, action<> cb_init) {
		base.init(sId, cb_init);
		scenarioId:=sId;
		controlChannel := lib.getControlChannel(scenarioId);
		rawChannel := lib.getRawChannel(scenarioId);
		dataChannel := lib.getDataChannel(scenarioId);
		base.listenToConfigureUpdates(_noopAction);
		mainContext:=context.current();
	}

	action _noopAction() {
	}
	

	/**
	 * Called by monitor after spawn
	 * Will maintain configuration for this scenario, and update listeners appropriately.
	 * @param getUpdateCallback a callback to get the latest outputFieldValues - may be called at any time, must 
         *        always return a consistent set of outputs
	 */
	action instanceInit(integer id, action<> returns sequence<string> getUpdateCallback, string _owner) {
		scenarioInstanceId:=id;
		owner:=_owner;
		getUpdate:=getUpdateCallback;
		update.scenarioId:=scenarioId;
		update.scenarioInstanceId:=scenarioInstanceId;
		base.listenToConfigureUpdates(_configurationUpdated);
		_configurationUpdated();
		listener l:=on all SendQueuedUpdatesNow() {
			_sendThrottledUpdate();
		}
		base.listeners.append(l);
	}

	/** 
	 * Get whether this scenario should route updates
	 */
	action isRouteUpdate() returns boolean {
		return base.routeUpdate;
	}

	/**
 	 * Kill any listeners this object has started
	 */
	action destroy() {
		base.destroy();
		throttlingListener.quit();
	}
	  
	/**
	 * called in instances (not factories) when configuration has changed
	 */
	action _configurationUpdated {
		if base.isSendThrottled() then {
			throttlingListener.quit();
			flushPending();
			if(base.throttlePeriod >= 0.0) then {
				if havePending then {
					_setupThrottleListener();
				}
			}
		}
	}

	/**
	 * set up a throttled listener according to throttlePeriod control
	 */
	action _setupThrottleListener {
		if base.throttlePeriod > 0.0 then {
			float offset:=currentTime-base.throttleStart;
			float t:=((offset/base.throttlePeriod).floor()+1).toFloat();
			throttlingListener:=on wait((t*base.throttlePeriod)-offset) {
				_sendThrottledUpdate();
			}
		} else {
			_sendThrottledUpdate();
		}
	}

	/**
	 * actually send an update on the throttled channel
	 */
	action _sendThrottledUpdate {
		if not havePending then {
			return;
		}
		if needUpdate then {
			update.outputFieldValues:=getUpdate();
			update.timeStamp:=latestUpdate;
			needUpdate:=false;
		}
		if base.sendThrottled then {
			emit update to dataChannel;
		}
		if base.sendThrottledUser then {
			emit update to lib.getDataUserChannel(dataChannel, owner);
		}
		havePending:=false;
	}

	/**
	 * flush any pending update on the throttled channel.
	 */
	action flushPending() {
		if havePending then {
			_sendThrottledUpdate();
			throttlingListener.quit();
		}
	}	

	/**
 	 * Called when a new update is available.
	 */
	action newUpdateAvailable() {
		needUpdate:=true;
		latestUpdate:=currentTime;
 		if base.sendRaw or base.routeUpdate then {
			if needUpdate then {
				update.outputFieldValues:=getUpdate();
				update.timeStamp:=currentTime;
				needUpdate:=false;
			}
			if base.sendRaw then {
				emit update to rawChannel;
			}
			if base.sendRawUser then {
				emit update to lib.getRawUserChannel(rawChannel, owner);
			}
			if base.routeUpdate then {
				route update;
			}
		}
		if base.isSendThrottled() and not havePending then {
			havePending:=true;
			_setupThrottleListener();
		}
	}
	
	/**
 	 * Called to emit a new Acknowledgement event.
	 */
	action emitAcknowledgement(integer messageId) {
		Acknowledge ack:=Acknowledge(scenarioId, messageId, scenarioInstanceId, true, getUpdate());
		if base.routeUpdate then {
			route ack;
		}
		if base.emitAny then {
			emit ack to controlChannel;
		}
	}
				
	/**
 	 * Called to emit a new Nak event.
	 */
	action emitNack(integer messageId) {
		Acknowledge nack:=Acknowledge(scenarioId, messageId, scenarioInstanceId, false, new sequence<string>);
		if base.routeUpdate then {
			route nack;
		}
		if base.emitAny then {
			emit nack to controlChannel;
		}
	}
	
	/**
 	 * Called to emit a new Created event.
	 */
	action emitCreated(integer messageId, string owner, string state, sequence<string> inputVariables, sequence<string> outputVariables) {
		if base.sendAny then {
			Created created:=Created(scenarioId, messageId, scenarioInstanceId, owner, state, inputVariables, outputVariables);
			route created;
			if base.emitAny then {
				base.doEmit(created.toString(), owner);
			}
		}
	}
	
	/**
 	 * Called to emit a new Edited event.
	 */
	action emitEdited(integer messageId, sequence<string> inputVariables) {
		flushPending();
		if base.sendAny then {
			Edited edited:=Edited(scenarioId, messageId, scenarioInstanceId, inputVariables, getUpdate());
			if base.routeUpdate then {
				route edited;
			}
			if base.emitAny then {
				base.doEmit(edited.toString(), owner);
			}
		}
		emitOpCompleted(messageId);
	}

	/**
 	 * Called to say an operation has completed; implied by emitEdited. Must be called before emitInstanceDied.
	 */
	action emitOpCompleted(integer messageId) {
		if(context.current().getId()!=mainContext.getId()) then {
			enqueue OperationCompleted(scenarioId, scenarioInstanceId, messageId) to mainContext;
		}
	}

	/**
 	 * Called to emit a new Deleted event.
	 */
	action emitDeleted(integer messageId) {
		flushPending();
		if base.sendAny then {
			Deleted deleted:=Deleted(scenarioId, messageId, scenarioInstanceId);
			if base.routeUpdate then {
				route deleted;
			}
			if base.emitAny then {
				base.doEmit(deleted.toString(), owner);
			}
		}
		throttlingListener.quit();
		notifyInstanceDied();
	}

	/**
 	 * Called to emit an instance Died event (either of failed, ended)
	 */
	action emitInstanceDied() {
		flushPending();
		if base.sendAny then {
			InstanceDied iDied:=InstanceDied(scenarioId, scenarioInstanceId);
			if base.emitAny then {
				base.doEmit(iDied.toString(), owner);
			}
			if mainContext.getId()=context.current().getId() then {
				route iDied;
			}
		}
		throttlingListener.quit();
	}

	/**
 	 * Called to notify the scenario service monitor that we have gone away - must be called 
 	 * after emitting any events regarding this instance going away. Implied by emitDeleted.
	 */
	action notifyInstanceDied() {
		if mainContext.getId()!=context.current().getId() then {
			InstanceDied iDied:=InstanceDied(scenarioId, scenarioInstanceId);
			enqueue iDied to mainContext;
		}
	}
	
	/**
 	 * Called to emit a new StateChange event.
	 */
	action emitStateChange(string state) {
		flushPending();
		StateChange stchange:=StateChange(scenarioId, scenarioInstanceId, state);
		if mainContext.getId()!=context.current().getId() then {
			enqueue stchange to mainContext;
		} else {
			route stchange;
		}
		if base.emitAny then {
			base.doEmit(stchange.toString(), owner);
		}
	}

	/**
 	 * Called to emit an instance in response to a RequestInstancesInternal event
	 */
	action emitInstance(RequestInstancesInternal request, string owner, string state, sequence<string> input, sequence<string> output) {
		Instance instance:=Instance(scenarioId, request.messageId, scenarioInstanceId, owner, state, input, output);
		if request.internal then {
			if mainContext.getId() != context.current().getId() then {
				enqueue instance to mainContext;
			} else {
				route instance;
			}
		} else {
			if(base.emitAny) then {
				emit instance to request.channel;
			}
		}
		if mainContext.getId() != context.current().getId() then {
			enqueue RequestInstancesParallelDone(scenarioId, request.messageId, scenarioInstanceId) to mainContext;
		}
	}

	/**
 	 * Called when the instance has failed.  input and output are the input
 	 * and output variables as at the last Update/ Edited point.
	 */
	action finished(string state, string owner, sequence<string> input, sequence<string> output) {
		ScenarioFinished scenFinished:=ScenarioFinished(scenarioId, scenarioInstanceId, owner, state, input, output);
		if mainContext.getId() != context.current().getId() then {
			enqueue scenFinished to mainContext;
		} else {
			route scenFinished;
		}
	}
	
}


/**
 * Utilitiy event for tracking configuration for a given scenario.
 * This event is suitable for use by monitors which spawn per scenario,
 * but not per instance. (e.g. ScenarioService, DataViewService)
 * 
 * actions starting with an underscore should be considered private 
 * and not called by users of this event.
 * 
 * Note that this updater only honours sendThrottledUser changes at the next throttling period
 * (it does not record the owner if sendThrottledUser is not true)
 */
event ScenarioServiceUpdaterMultipleInstances {
	// these are internal and should not be set by users
	string scenarioId;
	ScenarioServiceLibrary lib;
	listener throttlingListener;
	ScenarioServiceUpdaterBase base;
	boolean currentlySendingThrottledUser;
	dictionary<integer, Update> updates;
	dictionary<integer, string> owners;
	context mainContext;
	string controlChannel;
	string rawChannel;
	string dataChannel;

	/**
	 * Called by monitor for each scenario
	 * Will maintain configuration for this scenario Id
	 */
	action init(string sId, context mainCtx) {
		_init(sId, mainCtx, _configurationUpdated);
	}
	
	/**
	 * Called by monitor for each scenario
	 * Will maintain configuration for this scenario Id
	 */
	action init_cb(string sId, context mainCtx, action<> cb_initComplete) {
		CallbackHelper callbackHelper:=new CallbackHelper;
		callbackHelper.callbacks.append(cb_initComplete);
		callbackHelper.callbacks.append(_configurationUpdated);
		_init(sId, mainCtx, callbackHelper.callback);
	}

	/**
	 * Implementation of init and init_cb
	 */
	action _init(string sId, context mainCtx, action<> cb_initComplete) {
		base.init(sId, cb_initComplete);
		mainContext:=mainCtx;
		scenarioId:=sId;
		controlChannel := lib.getControlChannel(scenarioId);
		rawChannel := lib.getRawChannel(scenarioId);
		dataChannel := lib.getDataChannel(scenarioId);
		listener l:=on all SendQueuedUpdatesNow() {
			_sendThrottledUpdates();
		}
		base.listeners.append(l);
		base.listenToConfigureUpdates(_configurationUpdated);
	}
	
	/** 
	 * Get whether this scenario should route updates
	 */
	action isRouteUpdate() returns boolean {
		return base.routeUpdate;
	}

	/**
 	 * Kill any listeners this object has started
	 */
	action destroy() {
		base.destroy();
		throttlingListener.quit();
	}
	  

	/**
	 * called in instances (not factories) when configuration has changed
	 */
	action _configurationUpdated {
		if base.isSendThrottled() then {
			throttlingListener.quit();
			flushPending();
			if(base.throttlePeriod >= 0.0) then {
				_setupThrottleListener();
			}
		}
	}

	/**
	 * set up a throttled listener according to throttlePeriod control
	 */
	action _setupThrottleListener {
		if base.throttlePeriod > 0.0 then {
			throttlingListener:=on all wait(base.throttlePeriod) {
				_sendThrottledUpdates();
			}
		} else {
			_sendThrottledUpdates();
		}
	}

	/**
	 * actually send an update on the throttled channel
	 */
	action _sendThrottledUpdates {
		integer instance;
		if base.sendThrottled then {
			for instance in updates.keys() {
				emit updates[instance] to dataChannel;
			}
		}
		if currentlySendingThrottledUser then {
			for instance in updates.keys() {
				emit updates[instance] to lib.getDataUserChannel(dataChannel, owners[instance]);
			}
		}
		owners.clear();
		updates.clear();
		currentlySendingThrottledUser := base.sendThrottledUser;
	}

	/**
	 * flush any pending update on the throttled channel.
	 */
	action flushPending() {
		_sendThrottledUpdates();
	}	

	/**
 	 * Flush pending throttled data for one instance
	 */
	action flushPendingInstance(integer scenarioInstanceId) {
		if updates.hasKey(scenarioInstanceId) then {
			if base.sendThrottled then {
				emit updates[scenarioInstanceId] to dataChannel;
			}
			if currentlySendingThrottledUser then {
				emit updates[scenarioInstanceId] to lib.getDataUserChannel(dataChannel, owners[scenarioInstanceId]);
			}
			updates.remove(scenarioInstanceId);
			if owners.hasKey(scenarioInstanceId) then {
				owners.remove(scenarioInstanceId);
			}
		}
	}	

	/**
 	 * Called when a new update is available. (This variant allows setting of the time parameter)
	 */
	action emitUpdate_time(integer scenarioInstanceId, float time, sequence<string> output, string owner) {
		if base.sendAny then {
			Update update:=Update(scenarioId, scenarioInstanceId, time, output);
			if base.sendRaw then {
				emit update to rawChannel;
			}
			if base.sendRawUser then {
				emit update to lib.getRawUserChannel(rawChannel, owner);
			}
			if base.routeUpdate then {
				route update;
			}
			if base.isSendThrottled() then {
				if base.throttlePeriod > 0.0 then {
					updates.add(scenarioInstanceId, update);
					if currentlySendingThrottledUser then {
						owners.add(scenarioInstanceId, owner);
					}
				} else {
					emit update to dataChannel;
				}
			}
		}
	}
	
	/**
 	 * Called when a new update is available.
	 */
	action emitUpdate(integer scenarioInstanceId, sequence<string> output, string owner) {
		emitUpdate_time(scenarioInstanceId, currentTime, output, owner);
	}

	/**
 	 * Called to emit a new Acknowledgement event.
	 */
	action emitAcknowledgement(integer messageId, integer scenarioInstanceId, sequence<string> output) {
		Acknowledge ack:=Acknowledge(scenarioId, messageId, scenarioInstanceId, true, output);
		if base.routeUpdate then {
			route ack;
		}
		if base.emitAny then {
			emit ack to controlChannel;
		}
	}
				
	/**
 	 * Called to emit a new Nak event.
	 */
	action emitNack(integer messageId, integer scenarioInstanceId) {
		Acknowledge nack:=Acknowledge(scenarioId, messageId, scenarioInstanceId, false, new sequence<string>);
		if base.routeUpdate then {
			route nack;
		}
		if base.emitAny then {
			emit nack to controlChannel;
		}
	}
	
	/**
 	 * Called to emit a new Created event.
	 */
	action emitCreated(integer messageId, integer scenarioInstanceId, string owner, string state, sequence<string> inputVariables, sequence<string> outputVariables) {
		if base.sendAny then {
			Created created:=Created(scenarioId, messageId, scenarioInstanceId, owner, state, inputVariables, outputVariables);
			route created;
			if base.emitAny then {
				string sCreated:=created.toString();
				base.doEmit(sCreated, owner);
			}
		}
	}

	/**
 	 * Called to emit any received events (except for instance) for this scenario.
	 */
	action emitReceivedEvents() {
		dictionary<integer, string> instanceOwners:=new dictionary<integer, string>;
		{
			Update update;
			listener l:=on all Update(scenarioId = scenarioId):update {
				if base.sendRaw then {
					emit update to rawChannel;
				}
				if base.sendRawUser and instanceOwners.hasKey(update.scenarioInstanceId) then {	
					emit update to lib.getRawUserChannel(rawChannel, instanceOwners[update.scenarioInstanceId]);
				}
				if base.isSendThrottled() then {
					if base.throttlePeriod > 0.0 then {
						updates.add(update.scenarioInstanceId, update);
						string owner:="*";
						if instanceOwners.hasKey(update.scenarioInstanceId) then {
							owner:=instanceOwners[update.scenarioInstanceId];
						}
						if currentlySendingThrottledUser then {
							owners.add(update.scenarioInstanceId, owner);
						}
					} else {
						emit update to dataChannel;
					}
				}
			}
			base.listeners.append(l);
		}
		{
			Created created;
			listener l:=on all Created(scenarioId = scenarioId):created {
				if(created.owner != "*") then {
					instanceOwners.add(created.scenarioInstanceId, created.owner);
				}
				base.doEmit(created.toString(), created.owner);				
			}
			base.listeners.append(l);
		}
		{
			Deleted deleted;
			listener l:=on all Deleted(scenarioId = scenarioId):deleted {
				flushPendingInstance(deleted.scenarioInstanceId);
				string owner:="*";
				if instanceOwners.hasKey(deleted.scenarioInstanceId) then {
					owner:=instanceOwners[deleted.scenarioInstanceId];
					instanceOwners.remove(deleted.scenarioInstanceId);
				}
				base.doEmit(deleted.toString(), owner);		
			}
			base.listeners.append(l);
		}
		{
			Edited edited;
			listener l:=on all Edited(scenarioId = scenarioId):edited {
				flushPendingInstance(edited.scenarioInstanceId);
				string owner:="*";
				if instanceOwners.hasKey(edited.scenarioInstanceId) then {
					owner:=instanceOwners[edited.scenarioInstanceId];
				}
				base.doEmit(edited.toString(), owner);		
			}
			base.listeners.append(l);
		}
		{
			InstanceDied instanceDied;
			listener l:=on all InstanceDied(scenarioId = scenarioId):instanceDied {
				flushPendingInstance(instanceDied.scenarioInstanceId);
				string owner:="*";
				if instanceOwners.hasKey(instanceDied.scenarioInstanceId) then {
					owner:=instanceOwners[instanceDied.scenarioInstanceId];
				}
				base.doEmit(instanceDied.toString(), owner);		
			}
			base.listeners.append(l);
		}
	}
	
	/**
 	 * Called to emit a new Edited event.
	 */
	action emitEdited(integer messageId, integer scenarioInstanceId, sequence<string> inputVariables, sequence<string> outputVariables, string owner) {
		flushPendingInstance(scenarioInstanceId);
		if base.sendAny then {
			Edited edited:=Edited(scenarioId, messageId, scenarioInstanceId, inputVariables, outputVariables);
			if base.routeUpdate then {
				route edited;
			}
			if base.emitAny then {
				base.doEmit(edited.toString(), owner);
			}
		}
		emitOpCompleted(messageId, scenarioInstanceId);
	}

	/**
 	 * Called to say an operation has completed; implied by emitEdited. Must be called before emitInstanceDied.
	 */
	action emitOpCompleted(integer messageId, integer scenarioInstanceId) {
		if(context.current().getId()!=mainContext.getId()) then {
			enqueue OperationCompleted(scenarioId, scenarioInstanceId, messageId) to mainContext;
		}
	}

	/**
 	 * Called to emit a new Deleted event.
	 */
	action emitDeleted(integer messageId, integer scenarioInstanceId, string owner) {
		flushPendingInstance(scenarioInstanceId);
		if base.sendAny then {
			Deleted deleted:=Deleted(scenarioId, messageId, scenarioInstanceId);
			if base.routeUpdate then {
				route deleted;
			}
			if base.emitAny then {
				base.doEmit(deleted.toString(), owner);
			}
		}
		notifyInstanceDied(scenarioInstanceId);
	}

	/**
 	 * Called to notify the scenario service monitor that we have gone away - must be called 
 	 * after emitting any events regarding this instance going away. Implied by emitDeleted.
	 */
	action notifyInstanceDied(integer scenarioInstanceId) {
		if mainContext.getId()!=context.current().getId() then {
			InstanceDied iDied:=InstanceDied(scenarioId, scenarioInstanceId);
			enqueue iDied to mainContext;
		}
	}
	

	
	/**
 	 * Called to emit an instance Died event (either of failed, ended)
	 */
	action emitInstanceDied(integer scenarioInstanceId, string owner) {
		flushPendingInstance(scenarioInstanceId);
		if base.sendAny then {
			InstanceDied iDied:=InstanceDied(scenarioId, scenarioInstanceId);
			if base.emitAny then {
				base.doEmit(iDied.toString(), owner);
			}
			if mainContext.getId()=context.current().getId() then {
				route iDied;
			}
		}
	}
	
[...]
RMDT 00000022 &REPLAY_ID("EmittedSeqNum",1,2106)
RMDT 00000022 &REPLAY_ID("EmittedSeqNum",1,2107)
RMDT 00000022 &REPLAY_ID("EmittedSeqNum",1,2108)
TIME 0000000e 1444668768.9,1
RMDT 00000022 &REPLAY_ID("EmittedSeqNum",1,2109)
RMDT 00000022 &REPLAY_ID("EmittedSeqNum",1,2110)
RMDT 00000022 &REPLAY_ID("EmittedSeqNum",1,2111)
TIME 0000000e 1444668773.9,1
RMDT 00000020 &REPLAY_ID("RandomNumber",1,592)
RMDT 00000020 &REPLAY_ID("RandomNumber",1,593)
RMDT 00000020 &REPLAY_ID("RandomNumber",1,594)
RMDT 00000020 &REPLAY_ID("RandomNumber",1,595)
RMDT 00000020 &REPLAY_ID("RandomNumber",1,596)
RMDT 00000022 &REPLAY_ID("EmittedSeqNum",1,2112)
RMDT 00000022 &REPLAY_ID("EmittedSeqNum",1,2113)
RMDT 00000022 &REPLAY_ID("EmittedSeqNum",1,2114)
RMDT 00000022 &REPLAY_ID("EmittedSeqNum",1,2115)
RMDT 00000022 &REPLAY_ID("EmittedSeqNum",1,2116)
RMDT 00000022 &REPLAY_ID("EmittedSeqNum",1,2117)
RMDT 00000022 &REPLAY_ID("EmittedSeqNum",1,2118)
RMDT 00000022 &REPLAY_ID("EmittedSeqNum",1,2119)
RMDT 00000022 &REPLAY_ID("EmittedSeqNum",1,2120)
RMDT 00000022 &REPLAY_ID("EmittedSeqNum",1,2121)
TIME 0000000e 1444668778.9,1
RMDT 00000022 &REPLAY_ID("EmittedSeqNum",1,2122)
RMDT 00000022 &REPLAY_ID("EmittedSeqNum",1,2123)
RMDT 00000022 &REPLAY_ID("EmittedSeqNum",1,2124)
RMDT 00000022 &REPLAY_ID("EmittedSeqNum",1,2125)
RMDT 00000022 &REPLAY_ID("EmittedSeqNum",1,2126)
TIME 0000000e 1444668783.9,1
RMDT 00000020 &REPLAY_ID("RandomNumber",1,597)
RMDT 00000020 &REPLAY_ID("RandomNumber",1,598)
RMDT 00000020 &REPLAY_ID("RandomNumber",1,599)
RMDT 00000020 &REPLAY_ID("RandomNumber",1,600)
RMDT 00000020 &REPLAY_ID("RandomNumber",1,601)
RMDT 00000020 &REPLAY_ID("RandomNumber",1,602)
RMDT 00000022 &REPLAY_ID("EmittedSeqNum",1,2127)
RMDT 00000022 &REPLAY_ID("EmittedSeqNum",1,2128)
RMDT 00000022 &REPLAY_ID("EmittedSeqNum",1,2129)
RMDT 00000022 &REPLAY_ID("EmittedSeqNum",1,2130)
RMDT 00000022 &REPLAY_ID("EmittedSeqNum",1,2131)
RMDT 00000022 &REPLAY_ID("EmittedSeqNum",1,2132)
RMDT 00000022 &REPLAY_ID("EmittedSeqNum",1,2133)
RMDT 00000022 &REPLAY_ID("EmittedSeqNum",1,2134)
RMDT 00000022 &REPLAY_ID("EmittedSeqNum",1,2135)
RMDT 00000022 &REPLAY_ID("EmittedSeqNum",1,2136)
RMDT 00000022 &REPLAY_ID("EmittedSeqNum",1,2137)
RMDT 00000022 &REPLAY_ID("EmittedSeqNum",1,2138)
RMDT 00000022 &REPLAY_ID("EmittedSeqNum",1,2139)
RMDT 00000022 &REPLAY_ID("EmittedSeqNum",1,2140)
RMDT 00000022 &REPLAY_ID("EmittedSeqNum",1,2141)
RMDT 00000022 &REPLAY_ID("EmittedSeqNum",1,2142)
TIME 0000000e 1444668793.9,1
RMDT 00000020 &REPLAY_ID("RandomNumber",1,603)
RMDT 00000020 &REPLAY_ID("RandomNumber",1,604)
RMDT 00000020 &REPLAY_ID("RandomNumber",1,605)
RMDT 00000022 &REPLAY_ID("EmittedSeqNum",1,2143)
RMDT 00000022 &REPLAY_ID("EmittedSeqNum",1,2144)
RMDT 00000022 &REPLAY_ID("EmittedSeqNum",1,2145)
RMDT 00000022 &REPLAY_ID("EmittedSeqNum",1,2146)
RMDT 00000022 &REPLAY_ID("EmittedSeqNum",1,2147)
RMDT 00000022 &REPLAY_ID("EmittedSeqNum",1,2148)
RMDT 00000022 &REPLAY_ID("EmittedSeqNum",1,2149)
RMDT 00000022 &REPLAY_ID("EmittedSeqNum",1,2150)
RMDT 00000022 &REPLAY_ID("EmittedSeqNum",1,2151)
RMDT 00000022 &REPLAY_ID("EmittedSeqNum",1,2152)
RMDT 00000022 &REPLAY_ID("EmittedSeqNum",1,2153)
TIME 0000000e 1444668798.9,1
RMDT 00000022 &REPLAY_ID("EmittedSeqNum",1,2154)
RMDT 00000022 &REPLAY_ID("EmittedSeqNum",1,2155)
RMDT 00000022 &REPLAY_ID("EmittedSeqNum",1,2156)
TIME 0000000e 1444668803.9,1
RMDT 00000020 &REPLAY_ID("RandomNumber",1,606)
RMDT 00000020 &REPLAY_ID("RandomNumber",1,607)
RMDT 00000020 &REPLAY_ID("RandomNumber",1,608)
RMDT 00000022 &REPLAY_ID("EmittedSeqNum",1,2157)
RMDT 00000022 &REPLAY_ID("EmittedSeqNum",1,2158)
RMDT 00000022 &REPLAY_ID("EmittedSeqNum",1,2159)
RMDT 00000022 &REPLAY_ID("EmittedSeqNum",1,2160)
RMDT 00000022 &REPLAY_ID("EmittedSeqNum",1,2161)
RMDT 00000022 &REPLAY_ID("EmittedSeqNum",1,2162)
TIME 0000000e 1444668808.9,1
RMDT 00000022 &REPLAY_ID("EmittedSeqNum",1,2163)
RMDT 00000022 &REPLAY_ID("EmittedSeqNum",1,2164)
RMDT 00000022 &REPLAY_ID("EmittedSeqNum",1,2165)
RMDT 00000022 &REPLAY_ID("EmittedSeqNum",1,2166)
RMDT 00000022 &REPLAY_ID("EmittedSeqNum",1,2167)
TIME 0000000e 1444668813.9,1
RMDT 00000020 &REPLAY_ID("RandomNumber",1,609)
RMDT 00000020 &REPLAY_ID("RandomNumber",1,610)
RMDT 00000020 &REPLAY_ID("RandomNumber",1,611)
RMDT 00000022 &REPLAY_ID("EmittedSeqNum",1,2168)
RMDT 00000022 &REPLAY_ID("EmittedSeqNum",1,2169)
RMDT 00000022 &REPLAY_ID("EmittedSeqNum",1,2170)
RMDT 00000022 &REPLAY_ID("EmittedSeqNum",1,2171)
RMDT 00000022 &REPLAY_ID("EmittedSeqNum",1,2172)
RMDT 00000022 &REPLAY_ID("EmittedSeqNum",1,2173)
RMDT 00000022 &REPLAY_ID("EmittedSeqNum",1,2174)
RMDT 00000022 &REPLAY_ID("EmittedSeqNum",1,2175)
RMDT 00000022 &REPLAY_ID("EmittedSeqNum",1,2176)
TIME 0000000e 1444668823.9,1
RMDT 00000020 &REPLAY_ID("RandomNumber",1,612)
RMDT 00000020 &REPLAY_ID("RandomNumber",1,613)
RMDT 00000020 &REPLAY_ID("RandomNumber",1,614)
RMDT 00000022 &REPLAY_ID("EmittedSeqNum",1,2177)
RMDT 00000022 &REPLAY_ID("EmittedSeqNum",1,2178)
RMDT 00000022 &REPLAY_ID("EmittedSeqNum",1,2179)
RMDT 00000022 &REPLAY_ID("EmittedSeqNum",1,2180)
RMDT 00000022 &REPLAY_ID("EmittedSeqNum",1,2181)
RMDT 00000022 &REPLAY_ID("EmittedSeqNum",1,2182)
RMDT 00000022 &REPLAY_ID("EmittedSeqNum",1,2183)
RMDT 00000022 &REPLAY_ID("EmittedSeqNum",1,2184)
RMDT 00000022 &REPLAY_ID("EmittedSeqNum",1,2185)
RMDT 00000022 &REPLAY_ID("EmittedSeqNum",1,2186)
RMDT 00000022 &REPLAY_ID("EmittedSeqNum",1,2187)
TIME 0000000e 1444668828.9,1
RMDT 00000022 &REPLAY_ID("EmittedSeqNum",1,2188)
RMDT 00000022 &REPLAY_ID("EmittedSeqNum",1,2189)
RMDT 00000022 &REPLAY_ID("EmittedSeqNum",1,2190)
TIME 0000000e 1444668833.9,1
RMDT 00000020 &REPLAY_ID("RandomNumber",1,615)
RMDT 00000020 &REPLAY_ID("RandomNumber",1,616)
RMDT 00000020 &REPLAY_ID("RandomNumber",1,617)
RMDT 00000022 &REPLAY_ID("EmittedSeqNum",1,2191)
RMDT 00000022 &REPLAY_ID("EmittedSeqNum",1,2192)
RMDT 00000022 &REPLAY_ID("EmittedSeqNum",1,2193)
RMDT 00000022 &REPLAY_ID("EmittedSeqNum",1,2194)
RMDT 00000022 &REPLAY_ID("EmittedSeqNum",1,2195)
RMDT 00000022 &REPLAY_ID("EmittedSeqNum",1,2196)
RMDT 00000022 &REPLAY_ID("EmittedSeqNum",1,2197)
RMDT 00000022 &REPLAY_ID("EmittedSeqNum",1,2198)
TIME 0000000e 1444668838.9,1
RMDT 00000022 &REPLAY_ID("EmittedSeqNum",1,2199)
RMDT 00000022 &REPLAY_ID("EmittedSeqNum",1,2200)
RMDT 00000022 &REPLAY_ID("EmittedSeqNum",1,2201)
RMDT 00000022 &REPLAY_ID("EmittedSeqNum",1,2202)
RMDT 00000022 &REPLAY_ID("EmittedSeqNum",1,2203)
TIME 0000000e 1444668843.9,1
RMDT 00000020 &REPLAY_ID("RandomNumber",1,618)
RMDT 00000020 &REPLAY_ID("RandomNumber",1,619)
RMDT 00000020 &REPLAY_ID("RandomNumber",1,620)
RMDT 00000020 &REPLAY_ID("RandomNumber",1,621)
RMDT 00000020 &REPLAY_ID("RandomNumber",1,622)
RMDT 00000020 &REPLAY_ID("RandomNumber",1,623)
RMDT 00000022 &REPLAY_ID("EmittedSeqNum",1,2204)
RMDT 00000022 &REPLAY_ID("EmittedSeqNum",1,2205)
RMDT 00000022 &REPLAY_ID("EmittedSeqNum",1,2206)
RMDT 00000022 &REPLAY_ID("EmittedSeqNum",1,2207)
RMDT 00000022 &REPLAY_ID("EmittedSeqNum",1,2208)
RMDT 00000022 &REPLAY_ID("EmittedSeqNum",1,2209)
RMDT 00000022 &REPLAY_ID("EmittedSeqNum",1,2210)
RMDT 00000022 &REPLAY_ID("EmittedSeqNum",1,2211)
RMDT 00000022 &REPLAY_ID("EmittedSeqNum",1,2212)
RMDT 00000022 &REPLAY_ID("EmittedSeqNum",1,2213)
RMDT 00000022 &REPLAY_ID("EmittedSeqNum",1,2214)
RMDT 00000022 &REPLAY_ID("EmittedSeqNum",1,2215)
RMDT 00000022 &REPLAY_ID("EmittedSeqNum",1,2216)
RMDT 00000022 &REPLAY_ID("EmittedSeqNum",1,2217)
RMDT 00000022 &REPLAY_ID("EmittedSeqNum",1,2218)
RMDT 00000022 &REPLAY_ID("EmittedSeqNum",1,2219)
RMDT 00000022 &REPLAY_ID("EmittedSeqNum",1,2220)
RMDT 00000022 &REPLAY_ID("EmittedSeqNum",1,2221)
TIME 0000000e 1444668853.9,1
RMDT 00000020 &REPLAY_ID("RandomNumber",1,624)
RMDT 00000020 &REPLAY_ID("RandomNumber",1,625)
RMDT 00000020 &REPLAY_ID("RandomNumber",1,626)
RMDT 00000022 &REPLAY_ID("EmittedSeqNum",1,2222)
RMDT 00000022 &REPLAY_ID("EmittedSeqNum",1,2223)
RMDT 00000022 &REPLAY_ID("EmittedSeqNum",1,2224)
RMDT 00000022 &REPLAY_ID("EmittedSeqNum",1,2225)
RMDT 00000022 &REPLAY_ID("EmittedSeqNum",1,2226)
RMDT 00000022 &REPLAY_ID("EmittedSeqNum",1,2227)
RMDT 00000022 &REPLAY_ID("EmittedSeqNum",1,2228)
RMDT 00000022 &REPLAY_ID("EmittedSeqNum",1,2229)
RMDT 00000022 &REPLAY_ID("EmittedSeqNum",1,2230)
RMDT 00000022 &REPLAY_ID("EmittedSeqNum",1,2231)
RMDT 00000022 &REPLAY_ID("EmittedSeqNum",1,2232)
TIME 0000000e 1444668858.9,1
RMDT 00000022 &REPLAY_ID("EmittedSeqNum",1,2233)
RMDT 00000022 &REPLAY_ID("EmittedSeqNum",1,2234)
RMDT 00000022 &REPLAY_ID("EmittedSeqNum",1,2235)
TIME 0000000e 1444668863.9,1
RMDT 00000020 &REPLAY_ID("RandomNumber",1,627)
RMDT 00000020 &REPLAY_ID("RandomNumber",1,628)
RMDT 00000020 &REPLAY_ID("RandomNumber",1,629)
RMDT 00000022 &REPLAY_ID("EmittedSeqNum",1,2236)
RMDT 00000022 &REPLAY_ID("EmittedSeqNum",1,2237)
RMDT 00000022 &REPLAY_ID("EmittedSeqNum",1,2238)
RMDT 00000022 &REPLAY_ID("EmittedSeqNum",1,2239)
RMDT 00000022 &REPLAY_ID("EmittedSeqNum",1,2240)
RMDT 00000022 &REPLAY_ID("EmittedSeqNum",1,2241)
TIME 0000000e 1444668868.9,1
RMDT 00000022 &REPLAY_ID("EmittedSeqNum",1,2242)
RMDT 00000022 &REPLAY_ID("EmittedSeqNum",1,2243)
RMDT 00000022 &REPLAY_ID("EmittedSeqNum",1,2244)
RMDT 00000022 &REPLAY_ID("EmittedSeqNum",1,2245)
RMDT 00000022 &REPLAY_ID("EmittedSeqNum",1,2246)
TIME 0000000e 1444668873.9,1
RMDT 00000020 &REPLAY_ID("RandomNumber",1,630)
RMDT 00000020 &REPLAY_ID("RandomNumber",1,631)
RMDT 00000020 &REPLAY_ID("RandomNumber",1,632)
RMDT 00000020 &REPLAY_ID("RandomNumber",1,633)
RMDT 00000020 &REPLAY_ID("RandomNumber",1,634)
RMDT 00000022 &REPLAY_ID("EmittedSeqNum",1,2247)
RMDT 00000022 &REPLAY_ID("EmittedSeqNum",1,2248)
RMDT 00000022 &REPLAY_ID("EmittedSeqNum",1,2249)
RMDT 00000022 &REPLAY_ID("EmittedSeqNum",1,2250)
RMDT 00000022 &REPLAY_ID("EmittedSeqNum",1,2251)
RMDT 00000022 &REPLAY_ID("EmittedSeqNum",1,2252)
RMDT 00000022 &REPLAY_ID("EmittedSeqNum",1,2253)
RMDT 00000022 &REPLAY_ID("EmittedSeqNum",1,2254)
RMDT 00000022 &REPLAY_ID("EmittedSeqNum",1,2255)
RMDT 00000022 &REPLAY_ID("EmittedSeqNum",1,2256)
RMDT 00000022 &REPLAY_ID("EmittedSeqNum",1,2257)
RMDT 00000022 &REPLAY_ID("EmittedSeqNum",1,2258)
RMDT 00000022 &REPLAY_ID("EmittedSeqNum",1,2259)
TIME 0000000e 1444668883.9,1
RMDT 00000020 &REPLAY_ID("RandomNumber",1,635)
RMDT 00000020 &REPLAY_ID("RandomNumber",1,636)
RMDT 00000020 &REPLAY_ID("RandomNumber",1,637)
RMDT 00000022 &REPLAY_ID("EmittedSeqNum",1,2260)
RMDT 00000022 &REPLAY_ID("EmittedSeqNum",1,2261)
RMDT 00000022 &REPLAY_ID("EmittedSeqNum",1,2262)
RMDT 00000022 &REPLAY_ID("EmittedSeqNum",1,2263)
RMDT 00000022 &REPLAY_ID("EmittedSeqNum",1,2264)
RMDT 00000022 &REPLAY_ID("EmittedSeqNum",1,2265)
RMDT 00000022 &REPLAY_ID("EmittedSeqNum",1,2266)
RMDT 00000022 &REPLAY_ID("EmittedSeqNum",1,2267)
RMDT 00000022 &REPLAY_ID("EmittedSeqNum",1,2268)
RMDT 00000022 &REPLAY_ID("EmittedSeqNum",1,2269)
RMDT 00000022 &REPLAY_ID("EmittedSeqNum",1,2270)
TIME 0000000e 1444668888.9,1
RMDT 00000022 &REPLAY_ID("EmittedSeqNum",1,2271)
RMDT 00000022 &REPLAY_ID("EmittedSeqNum",1,2272)
RMDT 00000022 &REPLAY_ID("EmittedSeqNum",1,2273)
TIME 0000000e 1444668893.9,1
RMDT 00000020 &REPLAY_ID("RandomNumber",1,638)
RMDT 00000020 &REPLAY_ID("RandomNumber",1,639)
RMDT 00000020 &REPLAY_ID("RandomNumber",1,640)
RMDT 00000022 &REPLAY_ID("EmittedSeqNum",1,2274)
RMDT 00000022 &REPLAY_ID("EmittedSeqNum",1,2275)
RMDT 00000022 &REPLAY_ID("EmittedSeqNum",1,2276)
RMDT 00000022 &REPLAY_ID("EmittedSeqNum",1,2277)
RMDT 00000022 &REPLAY_ID("EmittedSeqNum",1,2278)
RMDT 00000022 &REPLAY_ID("EmittedSeqNum",1,2279)
TIME 0000000e 1444668898.9,1
RMDT 00000022 &REPLAY_ID("EmittedSeqNum",1,2280)
RMDT 00000022 &REPLAY_ID("EmittedSeqNum",1,2281)
RMDT 00000022 &REPLAY_ID("EmittedSeqNum",1,2282)
RMDT 00000022 &REPLAY_ID("EmittedSeqNum",1,2283)
RMDT 00000022 &REPLAY_ID("EmittedSeqNum",1,2284)
TIME 0000000e 1444668903.9,1
RMDT 00000020 &REPLAY_ID("RandomNumber",1,641)
RMDT 00000020 &REPLAY_ID("RandomNumber",1,642)
RMDT 00000020 &REPLAY_ID("RandomNumber",1,643)
RMDT 00000020 &REPLAY_ID("RandomNumber",1,644)
RMDT 00000022 &REPLAY_ID("EmittedSeqNum",1,2285)
RMDT 00000022 &REPLAY_ID("EmittedSeqNum",1,2286)
RMDT 00000022 &REPLAY_ID("EmittedSeqNum",1,2287)
RMDT 00000022 &REPLAY_ID("EmittedSeqNum",1,2288)
RMDT 00000022 &REPLAY_ID("EmittedSeqNum",1,2289)
RMDT 00000022 &REPLAY_ID("EmittedSeqNum",1,2290)
RMDT 00000022 &REPLAY_ID("EmittedSeqNum",1,2291)
RMDT 00000022 &REPLAY_ID("EmittedSeqNum",1,2292)
RMDT 00000022 &REPLAY_ID("EmittedSeqNum",1,2293)
RMDT 00000022 &REPLAY_ID("EmittedSeqNum",1,2294)
RMDT 00000022 &REPLAY_ID("EmittedSeqNum",1,2295)
RMDT 00000022 &REPLAY_ID("EmittedSeqNum",1,2296)
RMDT 00000022 &REPLAY_ID("EmittedSeqNum",1,2297)
RMDT 00000022 &REPLAY_ID("EmittedSeqNum",1,2298)
TIME 0000000e 1444668913.9,1
RMDT 00000020 &REPLAY_ID("RandomNumber",1,645)
RMDT 00000020 &REPLAY_ID("RandomNumber",1,646)
RMDT 00000020 &REPLAY_ID("RandomNumber",1,647)
RMDT 00000020 &REPLAY_ID("RandomNumber",1,648)
RMDT 00000020 &REPLAY_ID("RandomNumber",1,649)
RMDT 00000022 &REPLAY_ID("EmittedSeqNum",1,2299)
RMDT 00000022 &REPLAY_ID("EmittedSeqNum",1,2300)
RMDT 00000022 &REPLAY_ID("EmittedSeqNum",1,2301)
RMDT 00000022 &REPLAY_ID("EmittedSeqNum",1,2302)
RMDT 00000022 &REPLAY_ID("EmittedSeqNum",1,2303)
RMDT 00000022 &REPLAY_ID("EmittedSeqNum",1,2304)
RMDT 00000022 &REPLAY_ID("EmittedSeqNum",1,2305)
RMDT 00000022 &REPLAY_ID("EmittedSeqNum",1,2306)
RMDT 00000022 &REPLAY_ID("EmittedSeqNum",1,2307)
RMDT 00000022 &REPLAY_ID("EmittedSeqNum",1,2308)
RMDT 00000022 &REPLAY_ID("EmittedSeqNum",1,2309)
RMDT 00000022 &REPLAY_ID("EmittedSeqNum",1,2310)
RMDT 00000022 &REPLAY_ID("EmittedSeqNum",1,2311)
RMDT 00000022 &REPLAY_ID("EmittedSeqNum",1,2312)
RMDT 00000022 &REPLAY_ID("EmittedSeqNum",1,2313)
TIME 0000000e 1444668918.9,1
RMDT 00000022 &REPLAY_ID("EmittedSeqNum",1,2314)
RMDT 00000022 &REPLAY_ID("EmittedSeqNum",1,2315)
RMDT 00000022 &REPLAY_ID("EmittedSeqNum",1,2316)
TIME 0000000e 1444668923.9,1
RMDT 00000020 &REPLAY_ID("RandomNumber",1,650)
RMDT 00000020 &REPLAY_ID("RandomNumber",1,651)
RMDT 00000020 &REPLAY_ID("RandomNumber",1,652)
RMDT 00000022 &REPLAY_ID("EmittedSeqNum",1,2317)
RMDT 00000022 &REPLAY_ID("EmittedSeqNum",1,2318)
RMDT 00000022 &REPLAY_ID("EmittedSeqNum",1,2319)
RMDT 00000022 &REPLAY_ID("EmittedSeqNum",1,2320)
RMDT 00000022 &REPLAY_ID("EmittedSeqNum",1,2321)
RMDT 00000022 &REPLAY_ID("EmittedSeqNum",1,2322)
TIME 0000000e 1444668928.9,1
RMDT 00000022 &REPLAY_ID("EmittedSeqNum",1,2323)
RMDT 00000022 &REPLAY_ID("EmittedSeqNum",1,2324)
RMDT 00000022 &REPLAY_ID("EmittedSeqNum",1,2325)
RMDT 00000022 &REPLAY_ID("EmittedSeqNum",1,2326)
RMDT 00000022 &REPLAY_ID("EmittedSeqNum",1,2327)
TIME 0000000e 1444668933.9,1
RMDT 00000020 &REPLAY_ID("RandomNumber",1,653)
RMDT 00000020 &REPLAY_ID("RandomNumber",1,654)
RMDT 00000020 &REPLAY_ID("RandomNumber",1,655)
RMDT 00000022 &REPLAY_ID("EmittedSeqNum",1,2328)
RMDT 00000022 &REPLAY_ID("EmittedSeqNum",1,2329)
RMDT 00000022 &REPLAY_ID("EmittedSeqNum",1,2330)
RMDT 00000022 &REPLAY_ID("EmittedSeqNum",1,2331)
RMDT 00000022 &REPLAY_ID("EmittedSeqNum",1,2332)
RMDT 00000022 &REPLAY_ID("EmittedSeqNum",1,2333)
RMDT 00000022 &REPLAY_ID("EmittedSeqNum",1,2334)
RMDT 00000022 &REPLAY_ID("EmittedSeqNum",1,2335)
RMDT 00000022 &REPLAY_ID("EmittedSeqNum",1,2336)
RMDT 00000022 &REPLAY_ID("EmittedSeqNum",1,2337)
RMDT 00000022 &REPLAY_ID("EmittedSeqNum",1,2338)
TIME 0000000e 1444668943.9,1
RMDT 00000020 &REPLAY_ID("RandomNumber",1,656)
RMDT 00000020 &REPLAY_ID("RandomNumber",1,657)
RMDT 00000020 &REPLAY_ID("RandomNumber",1,658)
RMDT 00000022 &REPLAY_ID("EmittedSeqNum",1,2339)
RMDT 00000022 &REPLAY_ID("EmittedSeqNum",1,2340)
RMDT 00000022 &REPLAY_ID("EmittedSeqNum",1,2341)
RMDT 00000022 &REPLAY_ID("EmittedSeqNum",1,2342)
RMDT 00000022 &REPLAY_ID("EmittedSeqNum",1,2343)
RMDT 00000022 &REPLAY_ID("EmittedSeqNum",1,2344)
RMDT 00000022 &REPLAY_ID("EmittedSeqNum",1,2345)
RMDT 00000022 &REPLAY_ID("EmittedSeqNum",1,2346)
RMDT 00000022 &REPLAY_ID("EmittedSeqNum",1,2347)
RMDT 00000022 &REPLAY_ID("EmittedSeqNum",1,2348)
RMDT 00000022 &REPLAY_ID("EmittedSeqNum",1,2349)
TIME 0000000e 1444668948.9,1
RMDT 00000022 &REPLAY_ID("EmittedSeqNum",1,2350)
RMDT 00000022 &REPLAY_ID("EmittedSeqNum",1,2351)
RMDT 00000022 &REPLAY_ID("EmittedSeqNum",1,2352)
TIME 0000000e 1444668953.9,1
RMDT 00000020 &REPLAY_ID("RandomNumber",1,659)
RMDT 00000020 &REPLAY_ID("RandomNumber",1,660)
RMDT 00000020 &REPLAY_ID("RandomNumber",1,661)
RMDT 00000022 &REPLAY_ID("EmittedSeqNum",1,2353)
RMDT 00000022 &REPLAY_ID("EmittedSeqNum",1,2354)
RMDT 00000022 &REPLAY_ID("EmittedSeqNum",1,2355)
RMDT 00000022 &REPLAY_ID("EmittedSeqNum",1,2356)
RMDT 00000022 &REPLAY_ID("EmittedSeqNum",1,2357)
RMDT 00000022 &REPLAY_ID("EmittedSeqNum",1,2358)
TIME 0000000e 1444668958.9,1
RMDT 00000022 &REPLAY_ID("EmittedSeqNum",1,2359)
RMDT 00000022 &REPLAY_ID("EmittedSeqNum",1,2360)
RMDT 00000022 &REPLAY_ID("EmittedSeqNum",1,2361)
RMDT 00000022 &REPLAY_ID("EmittedSeqNum",1,2362)
RMDT 00000022 &REPLAY_ID("EmittedSeqNum",1,2363)
TIME 0000000e 1444668963.9,1
RMDT 00000020 &REPLAY_ID("RandomNumber",1,662)
RMDT 00000020 &REPLAY_ID("RandomNumber",1,663)
RMDT 00000020 &REPLAY_ID("RandomNumber",1,664)
RMDT 00000020 &REPLAY_ID("RandomNumber",1,665)
RMDT 00000020 &REPLAY_ID("RandomNumber",1,666)
RMDT 00000020 &REPLAY_ID("RandomNumber",1,667)
RMDT 00000022 &REPLAY_ID("EmittedSeqNum",1,2364)
RMDT 00000022 &REPLAY_ID("EmittedSeqNum",1,2365)
RMDT 00000022 &REPLAY_ID("EmittedSeqNum",1,2366)
RMDT 00000022 &REPLAY_ID("EmittedSeqNum",1,2367)
RMDT 00000022 &REPLAY_ID("EmittedSeqNum",1,2368)
RMDT 00000022 &REPLAY_ID("EmittedSeqNum",1,2369)
RMDT 00000022 &REPLAY_ID("EmittedSeqNum",1,2370)
RMDT 00000022 &REPLAY_ID("EmittedSeqNum",1,2371)
RMDT 00000022 &REPLAY_ID("EmittedSeqNum",1,2372)
RMDT 00000022 &REPLAY_ID("EmittedSeqNum",1,2373)
RMDT 00000022 &REPLAY_ID("EmittedSeqNum",1,2374)
RMDT 00000022 &REPLAY_ID("EmittedSeqNum",1,2375)
RMDT 00000022 &REPLAY_ID("EmittedSeqNum",1,2376)
RMDT 00000022 &REPLAY_ID("EmittedSeqNum",1,2377)
RMDT 00000022 &REPLAY_ID("EmittedSeqNum",1,2378)
RMDT 00000022 &REPLAY_ID("EmittedSeqNum",1,2379)
TIME 0000000e 1444668973.9,1
RMDT 00000020 &REPLAY_ID("RandomNumber",1,668)
RMDT 00000020 &REPLAY_ID("RandomNumber",1,669)
RMDT 00000020 &REPLAY_ID("RandomNumber",1,670)
RMDT 00000022 &REPLAY_ID("EmittedSeqNum",1,2380)
RMDT 00000022 &REPLAY_ID("EmittedSeqNum",1,2381)
RMDT 00000022 &REPLAY_ID("EmittedSeqNum",1,2382)
RMDT 00000022 &REPLAY_ID("EmittedSeqNum",1,2383)
RMDT 00000022 &REPLAY_ID("EmittedSeqNum",1,2384)
RMDT 00000022 &REPLAY_ID("EmittedSeqNum",1,2385)
RMDT 00000022 &REPLAY_ID("EmittedSeqNum",1,2386)
RMDT 00000022 &REPLAY_ID("EmittedSeqNum",1,2387)
RMDT 00000022 &REPLAY_ID("EmittedSeqNum",1,2388)
RMDT 00000022 &REPLAY_ID("EmittedSeqNum",1,2389)
RMDT 00000022 &REPLAY_ID("EmittedSeqNum",1,2390)
RMDT 00000022 &REPLAY_ID("EmittedSeqNum",1,2391)
RMDT 00000022 &REPLAY_ID("EmittedSeqNum",1,2392)
TIME 0000000e 1444668978.9,1
RMDT 00000022 &REPLAY_ID("EmittedSeqNum",1,2393)
RMDT 00000022 &REPLAY_ID("EmittedSeqNum",1,2394)
RMDT 00000022 &REPLAY_ID("EmittedSeqNum",1,2395)
TIME 0000000e 1444668983.9,1
RMDT 00000020 &REPLAY_ID("RandomNumber",1,671)
RMDT 00000020 &REPLAY_ID("RandomNumber",1,672)
RMDT 00000020 &REPLAY_ID("RandomNumber",1,673)
RMDT 00000020 &REPLAY_ID("RandomNumber",1,674)
RMDT 00000020 &REPLAY_ID("RandomNumber",1,675)
RMDT 00000022 &REPLAY_ID("EmittedSeqNum",1,2396)
RMDT 00000022 &REPLAY_ID("EmittedSeqNum",1,2397)
RMDT 00000022 &REPLAY_ID("EmittedSeqNum",1,2398)
RMDT 00000022 &REPLAY_ID("EmittedSeqNum",1,2399)
RMDT 00000022 &REPLAY_ID("EmittedSeqNum",1,2400)
RMDT 00000022 &REPLAY_ID("EmittedSeqNum",1,2401)
RMDT 00000022 &REPLAY_ID("EmittedSeqNum",1,2402)
RMDT 00000022 &REPLAY_ID("EmittedSeqNum",1,2403)
RMDT 00000022 &REPLAY_ID("EmittedSeqNum",1,2404)
RMDT 00000022 &REPLAY_ID("EmittedSeqNum",1,2405)
TIME 0000000e 1444668988.9,1
RMDT 00000022 &REPLAY_ID("EmittedSeqNum",1,2406)
RMDT 00000022 &REPLAY_ID("EmittedSeqNum",1,2407)
RMDT 00000022 &REPLAY_ID("EmittedSeqNum",1,2408)
RMDT 00000022 &REPLAY_ID("EmittedSeqNum",1,2409)
RMDT 00000022 &REPLAY_ID("EmittedSeqNum",1,2410)
