VERS 00000001 4
HEAD 00000e97 <?xml version="1.0"?>
<?xml-stylesheet type="text/xsl" href="/resources/transform.xslt"?><header><componentName>correlator</componentName><version>5.3.0.0.247085</version><build>rel/5.3.0.x@247085</build><buildPlatform>amd64-win</buildPlatform><platform>Windows Server 2008 R2 (Service Pack 1)</platform><cputype>AuthenticAMD family 15 model 8 stepping 0 Six-Core AMD Opteron(tm) Processor 2427</cputype><cpus>4</cpus><javaEnabled>true</javaEnabled><replayLogMode>inputLog</replayLogMode><args><arg>C:\SoftwareAG\Apama 5.3\bin\correlator.exe</arg><arg>--logQueueSizePeriod</arg><arg>0</arg><arg>-l</arg><arg>C:\SoftwareAG\ApamaWork_5.3\license\license.txt</arg><arg>--port</arg><arg>15903</arg><arg>--loglevel</arg><arg>INFO</arg><arg>--name</arg><arg>Apama Studio Correlator for Prosoft_IW2015(Prosoft_IW2015:Default Correlator)</arg><arg>-j</arg><arg>--jmsConfig</arg><arg>C:\SoftwareAG\ApamaWork_5.3\studio_workspace\.metadata\.plugins\org.eclipse.core.resources\.projects\Prosoft_IW2015\com.apama.text\JMS_Correlator-Integrated_Adapter</arg><arg>--inputLog</arg><arg>logs/Default_Correlator_${START_TIME}_${ID}.input.log</arg></args><environment><variable>ALLUSERSPROFILE=C:\ProgramData</variable><variable>APAMA_HOME=C:\SoftwareAG\Apama 5.3</variable><variable>APAMA_WORK=C:\SoftwareAG\ApamaWork_5.3</variable><variable>APPDATA=C:\Users\Administrator\AppData\Roaming</variable><variable>CLIENTNAME=PTGHP450-YD</variable><variable>COMMONPROGRAMFILES=C:\Program Files\Common Files</variable><variable>COMMONPROGRAMFILES(X86)=C:\Program Files (x86)\Common Files</variable><variable>COMMONPROGRAMW6432=C:\Program Files\Common Files</variable><variable>COMPUTERNAME=WMSERVER11</variable><variable>COMSPEC=C:\Windows\system32\cmd.exe</variable><variable>FP_NO_HOST_CHECK=NO</variable><variable>HOMEDRIVE=C:</variable><variable>HOMEPATH=\Users\Administrator</variable><variable>LOCALAPPDATA=C:\Users\Administrator\AppData\Local</variable><variable>LOGONSERVER=\\WMSERVER11</variable><variable>NUMBER_OF_PROCESSORS=4</variable><variable>OS=Windows_NT</variable><variable>PATH=C:\SoftwareAG\Apama 5.3\third_party\jre\bin\server;C:\SoftwareAG\Apama 5.3\third_party\jre\bin;C:\SoftwareAG\Apama 5.3\third_party\jre\lib\amd64\server;C:\SoftwareAG\Apama 5.3\third_party\jre\lib\amd64;C:\SoftwareAG\Apama 5.3\bin;C:\ProgramData\Oracle\Java\javapath;C:\Windows\system32;C:\Windows;C:\Windows\System32\Wbem;C:\Windows\System32\WindowsPowerShell\v1.0\</variable><variable>PATHEXT=.COM;.EXE;.BAT;.CMD;.VBS;.VBE;.JS;.JSE;.WSF;.WSH;.MSC</variable><variable>PROCESSOR_ARCHITECTURE=AMD64</variable><variable>PROCESSOR_IDENTIFIER=AMD64 Family 16 Model 8 Stepping 0, AuthenticAMD</variable><variable>PROCESSOR_LEVEL=16</variable><variable>PROCESSOR_REVISION=0800</variable><variable>PROGRAMDATA=C:\ProgramData</variable><variable>PROGRAMFILES=C:\Program Files</variable><variable>PROGRAMFILES(X86)=C:\Program Files (x86)</variable><variable>PROGRAMW6432=C:\Program Files</variable><variable>PROMPT=$P$G</variable><variable>PSMODULEPATH=C:\Windows\system32\WindowsPowerShell\v1.0\Modules\</variable><variable>PUBLIC=C:\Users\Public</variable><variable>SESSIONNAME=RDP-Tcp#0</variable><variable>SYSTEMDRIVE=C:</variable><variable>SYSTEMROOT=C:\Windows</variable><variable>TEMP=C:\Users\ADMINI~1\AppData\Local\Temp\2</variable><variable>TMP=C:\Users\ADMINI~1\AppData\Local\Temp\2</variable><variable>USERDOMAIN=WMSERVER11</variable><variable>USERNAME=Administrator</variable><variable>USERPROFILE=C:\Users\Administrator</variable><variable>WINDIR=C:\Windows</variable><variable>WINDOWS_TRACING_FLAGS=3</variable><variable>WINDOWS_TRACING_LOGFILE=C:\BVTBin\Tests\installpackage\csilogfile.log</variable></environment><version>5.3.0.0.247085</version></header>
RAND 0000000a 1630443728
CONN 00000027 6205108723613202185:3955614762 from R01
CONN 00000036 6205108723613202185:3482309487 from internal:R:control
CONN 00000027 6205108723613202185:1865318693 from S01
CONN 0000003c 6795184426424404343:7002719621944117623 from 127.0.0.1:59298
CONN 0000003c 6795184426424404343:7002720270484310391 from 127.0.0.1:59295
CONN 0000003c 6795184426424404343:7002720798765353335 from 127.0.0.1:59296
TIME 0000000e 1444739459.6,1
MONF 00004657 package com.apama.dataview;

/*
 * $Copyright(c) 2007, 2008 Progress Software Corporation (PSC). All rights reserved.$
 * $Copyright (c) 2013-2014 Software AG, Darmstadt, Germany and/or Software AG USA Inc., Reston, VA, USA, and/or its Subsidiaries and or/its Affiliates and/or their licensors.$
 * Use, reproduction, transfer, publication or disclosure is prohibited except as specifically provided for in your License Agreement with Software AG
 */


/* Apama DataViewService API.
 *
 * This service enables MonitorScript or JMon applications to expose a simple 
 * read-only "DataView" interface. DataViews may be viewed using Apama Dashboard 
 * Studio in a similar way to Scenarios.
 *
 * Several implementations of this interface will exist. 
 * Each implementation is in a separate file - inject the one you wish to use.
 *   e.g. DataViewService_Impl_Dict.mon
 *
 * Route vs. Emit
 * The standard implementations of the DataViewService will always ROUTE 
 * any com.apama.dataview.* events, with the expectation that applications
 * using the service are co-located in the same correlator as the service.
 * If your architecture requires the client application to be in a separate 
 * correlator to the DataView service, then two "emitter" monitors are 
 * available.
 * DataViewService_ServiceEmitter.mon  would be injected into the same 
 * correlator as the DataView service after injecting the DataViewService 
 * interface but before injecting the implementation.
 * DataViewService_ApplicationEmitter.mon  would be injected into the same 
 * correlator as the client application after injecting the DataViewService 
 * interface but before injecting the client application.
 * 
 *
 * Notes:
 * 
 * 1) Every event has an initial field called msgId. Clients may choose to put 
 *    some identifier in this field when sending messages to the service. Any 
 *    event routed by the service in response will contain the same identifier.
 *
 * 2) Most events contain a field called "dvName". This string 
 *    uniquely identifies a DataView inside the correlator. 
 *
 * 3) Every event has a final field called extraParams that is a string:string
 *    dictionary. Some implementations may choose to use this field. It provides
 *    a way of future-proofing the interface to a certain extent.
 *
 * $Revision: 221069 $
 */





/* ==========================================================================
 * ==========================================================================
 * Events to send to the DataViewService to manage the DataView schemas
 * ==========================================================================
 * ========================================================================== */


/** Define a new DataView type.
 *
 * Expect either a DataViewDefinition or a DataViewException in response.
 *
 * See also: DataViewDefinition() DataViewException(), DataViewAddItem()
 *
 * Direction: From the customer Monitor to the DataViewService.
 */
event DataViewAddDefinition {
	/** Optional application-defined message identifier used to correlate 
		requests and responses. */
	string msgId;
	/** The name that uniquely identifies this DataView (e.g. DataView_XXX) */
	string dvName;
	/** The display name of the DataView (e.g. "XXX manager") */
	string dvDisplayName;
	/** Optional field containing a description of this DataView 
		(e.g. "This DataView exposes XXX objects"). */
	string dvDescription;
	/** Specifies the names of each field exposed by the DataView. */
	sequence<string> fieldNames;
	/** Specifies the types corresponding to each field in the fieldNames sequence. 
		Supported types are: string, float, integer, boolean. */
	sequence<string> fieldTypes;
	/** Optional set of field names whose values in an Item are to be combined 
		to make a unique key that can be used instead of the dvItemId field of 
		DataViewDeleteItem, DataViewUpdateItem, and DataViewUpdateDelta events.
 	*/
	sequence<string> keyFields;
	/** Optional dictionary of parameters for future extensibility; 
		DataView implementation-specific parameters may also be stored here. */
	dictionary<string, string> extraParams;
}


/* Remove an existing DataView type.
 *
 * Direction: From the customer Monitor to the DataViewService.
 *
 * Response: DataViewUnloaded()
 */
event DataViewDeleteDefinition {
	string msgId;                            // [OPTIONAL] A messageId that applications may choose to use to identify "responses".
	string dvName;                           // The DataView Name (e.g. conventionally DataView_XXX)
	dictionary<string, string> extraParams;  // [OPTIONAL] Some implementations may choose to make use of this field.
}


/* Request helper dictionary to facilitate sequence position lookup
 *    by field name.
 *
 * See also: DataViewFieldLookup()
 *
 * Direction: From the customer Monitor to the DataViewService.
 *
 * Response: DataViewFieldLookup()
 */
event DataViewGetFieldLookup {
	string msgId;                            // [OPTIONAL] A messageId that applications may choose to use to identify "responses".
	string dvName;                           // The DataView Name (e.g. conventionally DataView_XXX)
	dictionary<string, string> extraParams;  // [OPTIONAL] Some implementations may choose to make use of this field.
}



/* ==========================================================================
 * ==========================================================================
 * Events to send to the DataViewService to manage individual DataView Items
 * ==========================================================================
 * ========================================================================== */


/* Request that a new Item is added to a specific DataView.
*
* See also: DataViewItem()
*
* Direction: From the customer Monitor to the DataViewService.
*/
event DataViewAddItem {
	string msgId;                            // [OPTIONAL] A messageId that applications may choose to use to identify "responses".
	string dvName;                           // the unique name of the DataView
	string owner;                            // the owner (user) of the Item.
	float timeStamp;                         // the timestamp of the initial update (seconds since epoch). If the value given is -1.0 then the service will populate it using correlator currentTime.
	sequence<string> fieldValues;            // complete sequence of field values in string form
	dictionary<string, string> extraParams;  // [OPTIONAL] Some implementations may choose to make use of this field.
}


/* Request that a new Item is added to a specific DataView if it does not already exist, 
* or is updated when it does exist. This will ONLY work when keyFields are used.
* Attempts to change the owner of an existing item will be rejected with a DataViewItemException.
*
* See also: DataViewItem()
*
* Direction: From the customer Monitor to the DataViewService.
*/
event DataViewAddOrUpdateItem {
	string msgId;                            // [OPTIONAL] A messageId that applications may choose to use to identify "responses".
	string dvName;                           // the unique name of the DataView
	string owner;                            // the owner (user) of the Item - ONLY used for new items.
	float timeStamp;                         // the timestamp of the initial update (seconds since epoch). If the value given is -1.0 then the service will populate it using correlator currentTime.
	sequence<string> fieldValues;            // complete sequence of field values in string form
	dictionary<string, string> extraParams;  // [OPTIONAL] Some implementations may choose to make use of this field.
}


/* Contains updated DataView Item fields.
 * Use this to update the fields.
 *
 * Direction: From the customer Monitor to the DataViewService.
 *
 */
event DataViewUpdateItem { 
	string msgId;                            // [OPTIONAL] A messageId that applications may choose to use to identify "responses".
	string dvName;                           // the unique name of the DataView
	integer dvItemId;                        // the ID of the Item within the DataView (may be -1 if using keyFields instead)
	float timeStamp;                         // the timestamp of the update (seconds since epoch). If the value given is -1.0 then the service will populate it using correlator currentTime.
	sequence<string> fieldValues;            // sequence of field values in string form
	dictionary<string, string> extraParams;  // [OPTIONAL] Some implementations may choose to make use of this field.
}


/* Contains updated DataView Item fields.
 * Use this to update the fields.
 *
 * Direction: From the customer Monitor to the DataViewService.
 *
 */
event DataViewUpdateItemDelta { 
	string msgId;                            // [OPTIONAL] A messageId that applications may choose to use to identify "responses".
	string dvName;                           // the unique name of the DataView
	integer dvItemId;                        // the ID of the Item within the DataView (may be -1 if using keyFields instead)
	float timeStamp;                         // the timestamp of the update (seconds since epoch). If the value given is -1.0 then the service will populate it using correlator currentTime.
	dictionary<integer,string> fieldValues;  // values to be updated. Dictionary Key is index into fields sequence, Value is new field value in sequence. 
	                                         // If not using dvItemId, then the dictionary MUST contain the key values (even though they have not changed)
	dictionary<string, string> extraParams;  // [OPTIONAL] Some implementations may choose to make use of this field.
}


/* Request that a specific Item within a specific DataView is deleted.
 *
 * See also: DataViewItemDeleted()
 *
 * Direction: From the customer Monitor to the DataViewService.
 */
event DataViewDeleteItem {
	string msgId;                            // [OPTIONAL] A messageId that applications may choose to use to identify "responses".
	string dvName;                           // the unique name of the DataView
	integer dvItemId;                        // the ID of the Item within the DataView (may be -1 if using keyFields instead)
	sequence<string> keyFields;              // [OPTIONAL] sequence of ONLY key field values (if not using the dvItemId)
	dictionary<string, string> extraParams;  // [OPTIONAL] Some implementations may choose to make use of this field.
}


/* Request that all Items within a specific DataView are deleted.
 *
 * See also: DataViewAllItemsDeleted()
 *
 * Direction: From the customer Monitor to the DataViewService.
 */
event DataViewDeleteAllItems {
	string msgId;                            // [OPTIONAL] A messageId that applications may choose to use to identify "responses".
	string dvName;                           // the unique name of the DataView
	dictionary<string, string> extraParams;  // [OPTIONAL] Some implementations may choose to make use of this field.
}


/* ==========================================================================
 * ==========================================================================
 * Events to that are callbacks from DatavViewService
 * ==========================================================================
 * ========================================================================== */


/** Confirmation that a specific DataView definition has been added.
 *
 * For information on the meaning of each field, see DataViewAddDefinition()
 *
 * Direction: From the DataViewService to the customer Monitor.
 */
event DataViewDefinition {
	string msgId;
	string dvName;
	string dvDisplayName;
	string dvDescription;
	sequence<string> fieldNames;
	sequence<string> fieldTypes;
	sequence<string> keyFields;
	dictionary<string, string> extraParams;
}


/* Indicates that a specific DataView definition is being unloaded.
 *
 * Direction: From the DataViewService to the customer Monitor.
 */
event DataViewDefinitionDeleted { 
	string msgId;                            // [OPTIONAL] A messageId that applications may choose to use to identify "responses".
	string dvName;                           // the unique name of the DataView
	dictionary<string, string> extraParams;  // [OPTIONAL] Some implementations may choose to make use of this field.
}


/* Notifies all interested clients that a new Item has been added to a specific 
 * DataView. 
 * The event provides the unique itemID, owner (user), and initial values for 
 * all fields.
 *
 * See also: DataViewAddItem()
 *
 * Direction: From the DataViewService to the customer Monitor.
 *
 */
event DataViewItem { 
	string msgId;                            // [OPTIONAL] A messageId that applications may choose to use to identify "responses".
	string dvName;                           // the unique name of the DataView
	integer dvItemId;                        // the ID of the Item within the DataView
	string owner;                            // the owner (user) of the Item.
	sequence<string> fieldValues;            // sequence of field values in string form
	dictionary<string, string> extraParams;  // [OPTIONAL] Some implementations may choose to make use of this field.
}


/* Notifies all interested clients that a specific Item within a specific 
 * DataView has been deleted.
 *
 * See also: DataViewDeleteItem()
 *
 * Direction: From the DataViewService to the customer Monitor.
 *
 */
event DataViewItemDeleted {
	string msgId;                            // [OPTIONAL] A messageId that applications may choose to use to identify "responses".
	string dvName;                           // the unique name of the DataView
	integer dvItemId;                        // the ID of the Item within the DataView
	sequence<string> keyFields;              // sequence of ONLY key field values (for those not using the dvItemId)
	dictionary<string, string> extraParams;  // [OPTIONAL] Some implementations may choose to make use of this field.
}


/* Notifies all interested clients that all Items within a specific 
 * DataView have been deleted.
 *
 * See also: DataViewDeleteAllItems()
 *
 * Direction: From the DataViewService to the customer Monitor.
 *
 */
event DataViewAllItemsDeleted {
	string msgId;                            // [OPTIONAL] A messageId that applications may choose to use to identify "responses".
	string dvName;                           // the unique name of the DataView
	dictionary<string, string> extraParams;  // [OPTIONAL] Some implementations may choose to make use of this field.
}


/* The helper dictionary to facilitate sequence position lookup
 *    by field name.
 *
 * See also: DataViewGetFieldLookup()
 *
 * Direction: From the DataViewService to the customer Monitor.
 */
event DataViewFieldLookup {
	string msgId;                            // [OPTIONAL] A messageId that applications may choose to use to identify "responses".
	string dvName;                           // The DataView Name (e.g. conventionally DataView_XXX)
	dictionary <string, integer> fields;     // A map of fieldName:fieldIndex
	dictionary<string, string> extraParams;  // [OPTIONAL] Some implementations may choose to make use of this field.
}


/* Indicates that an exception occurred within the DataViewService, and indicates 
* the name of the specific DataView.
*
* Direction: From the DataViewService to the customer Monitor.
*/
event DataViewException {
	string msgId;                            // [OPTIONAL] A messageId that applications may choose to use to identify "responses".
	string dvName;                           // the unique name of the DataView
	wildcard string message;                 // The message in the exception. This is designed to be human readable, and may change between implementations/versions, hence the wildcard.
	dictionary<string, string> extraParams;  // [OPTIONAL] Some implementations may choose to make use of this field.
}

/* Indicates that an exception occurred within the DataViewService, and indicates 
* the name of the specific DataView, and the Id of the specific Item.
*
* Direction: From the DataViewService to the customer Monitor.
*/
event DataViewItemException {
	string msgId;                            // [OPTIONAL] A messageId that applications may choose to use to identify "responses".
	string dvName;                           // the unique name of the DataView
	integer dvItemId;                        // the ID of the Item within the DataView
	wildcard string message;                 // The message in the exception. This is designed to be human readable, and may change between implementations/versions, hence the wildcard.
	dictionary<string, string> extraParams;  // [OPTIONAL] Some implementations may choose to make use of this field.
}


/* Indicates that the DataView service is being unloaded.
 *
 * Direction: From the DataViewService to the customer Monitor.
 */
event DataViewServiceUnloaded { 
	dictionary<string, string> extraParams;  // [OPTIONAL] Some implementations may choose to make use of this field.
}


monitor DataViewService_Interface {
	// MetaData relating to the interface
	dictionary<string,string> interfaceMetaData := {
		"interface.package"     :"com.apama.dataview",
		"interface.name"        :"DataViewService_Interface",
		"interface.fileName"    :"DataViewService_Interface.mon",
		"interface.vendor"      :"Apama",
		"interface.version"     :"5.3.0.0.247085",
		"interface.fullVersion" :"rel/5.3.0.x@247085",
		"interface.language"    :"MonitorScript"
	};

	action onload {
		log "DataViewService interface loaded. MetaData: "+interfaceMetaData.toString() at INFO;
	}
}

 0000003e C:\SoftwareAG\Apama 5.3\monitors\DataViewService_Interface.mon
TIME 0000000e 1444739459.7,1
MONF 00012519 package com.apama.scenario;

/**
 * This file contains the shared event definitions that are generic across 
 * all Scenarios.  
 *
 * WARNING: 
 *    The event definitions contained in this file form an internal protocol 
 *    and may change between software releases.
 *
 * Notes:
 * 1) The Event definitions contained in this file MUST be considered
 *    as an internal implementation of the communications protocol
 *    between the Apama client API and an Apama server.  As such
 *    these event definitions MUST NOT be considered "stable" and are 
 *    subject to change in any future software release.
 *
 *    The ONLY supported public APIs to the Scenario Service are the 
 *    Java client API (in the com.apama.services.scenario package) and the 
 *    .NET client API (in the Apama.Services.Scenario namespace).  
 *    Customers should not attempt to interface at the event or 
 *    EPL layer. Some events have been changed over time (as 
 *    noted here).
 *
 * 2) Most events now contain an initial field called "scenarioId". This string 
 *    uniquely identifies a scenario inside the correlator, and is used as 
 *    the package name, in several events, and for making up a part of the 
 *    data and control channel names.
 *
 * 3) Events that are intended to be used in a request-response pattern contain
 *    a "messageId" field.  The value of this field must be copied from the 
 *    request event into the response event. The mechanism allows clients to 
 *    match up request-response pairs.
 *
 *
 * $Copyright(c) 2005-2011 Progress Software Corporation (PSC). All rights reserved.$
 * $Copyright (c) 2013-2014 Software AG, Darmstadt, Germany and/or Software AG USA Inc., Reston, VA, USA, and/or its Subsidiaries and or/its Affiliates and/or their licensors.$
 * Use, reproduction, transfer, publication or disclosure is prohibited except as specifically provided for in your License Agreement with Software AG
 *
 * $Revision: 242755 $
 */

/**
 * Request that a new instance of a specific scenario is created.
 *
 * See also: Created(), Acknowledge()
 *
 * Direction: From the client to the correlator.
 *
 * Response: Acknowledge()
 */
event Create {
	string scenarioId;                   // the unique name of the scenario
	integer messageId;                   // the unique message ID (for request-response matching)
	string owner;                        // the owner (user) of the instance.
	sequence<string> inputFieldValues;   // sequence of INPUT field values in string form
}

/**
 * Notifies all interested clients that a new instance of a specific 
 * scenario has been created. 
 * The event provides the owner (user), initial state, and initial values for 
 * all input fields and all output fields.
 *
 * See also: Create()
 *
 * Direction: From the correlator to the client.
 *
 * Channel: <scenarioId>.Data and <scenarioId>.Data.Raw
 */
event Created { 
	string scenarioId;                   // the unique name of the scenario
	integer messageId;                   // the unique message ID (for request-response matching)
	integer scenarioInstanceId;          // the ID of the scenario instance
	string owner;                        // the owner (user) of the instance.
	string state;                        // the initial state of the instance.
	sequence<string> inputFieldValues;   // sequence of INPUT field values in string form
	sequence<string> outputFieldValues;  // sequence of OUTPUT field values in string form
}


/**
 * Notifies the interested clients of child scenarios created from
 * a parent scenario.
 *
 * Direction: Internal in the correlator
 *
 * Channel: <none>
 */
event ParentChildRelationship {
	string parentScenarioId;
	integer parentScenarioInstanceId;
	string childScenarioId;
	integer childScenarioInstanceId;
}


/**
 * Request that a specific instance of a specific scenario is edited (the input 
 * field values are changed).
 *
 * See also: Edited(), Acknowledge()
 *
 * Direction: From the client to the correlator.
 *
 * Response: Acknowledge()
 */
event Edit { 
	string scenarioId;                   // the unique name of the scenario
	integer messageId;                   // the unique message ID (for request-response matching)
	integer scenarioInstanceId;          // the ID of the scenario instance
	sequence<string> inputFieldValues;   // sequence of INPUT field values in string form
}


/**
 * Notifies all interested clients that a specific instance of a specific 
 * scenario has been edited (the input field values have changed).
 *
 * See also: Edit()
 *
 * Direction: From the correlator to the client.
 *
 * Channel: <scenarioId>.Data and <scenarioId>.Data.Raw
 */
event Edited { 
	string scenarioId;                   // the unique name of the scenario
	integer messageId;                   // the unique message ID (for request-response matching)
	integer scenarioInstanceId;          // the ID of the scenario instance
	sequence<string> inputFieldValues;   // sequence of INPUT field values in string form
	sequence<string> outputFieldValues;  // sequence of OUTPUT field values in string form
}


/**
 * Request that a specific instance of a specific scenario is deleted.
 *
 * See also: Deleted(), Acknowledge()
 *
 * Direction: From the client to the correlator.
 *
 * Response: Acknowledge()
 */
event Delete {
	string scenarioId;                   // the unique name of the scenario
	integer messageId;                   // the unique message ID (for request-response matching)
	integer scenarioInstanceId;          // the ID of the scenario instance
}


/**
 * Notifies all interested clients that a specific instance of a specific 
 * scenario has been deleted.
 *
 * See also: Delete()
 *
 * Direction: From the correlator to the client.
 *
 * Channel: <scenarioId>.Data and <scenarioId>.Data.Raw
 */
event Deleted {
	string scenarioId;                   // the unique name of the scenario
	integer messageId;                   // the unique message ID (for request-response matching)
	integer scenarioInstanceId;          // the ID of the scenario instance
}


/**
 * Indicates that a specific instance of a specific scenario has died.
 * This is sent as a result of a scenario instance use of MonitorScript ondie.
 * This occurs for any of deleting a running scenario, a scenario failing, or 
 * entering the end state.
 *
 * Direction: From the correlator to the client.
 *
 * Channel: <scenarioId>.Data and <scenarioId>.Data.Raw
 */
event InstanceDied {
	string scenarioId;                   // the unique name of the scenario
	integer scenarioInstanceId;          // the ID of the scenario instance
}


/**
 * Contains updated scenario instance output fields.
 * Note that this is the ONLY event type that is sendted on the 
 * "<scenarioId>.Data" channel.
 *
 * Direction: From the correlator to the client.
 *
 * Channel: <scenarioId>.Data and <scenarioId>.Data.Raw
 */
event Update { 
	string scenarioId;                   // the unique name of the scenario
	integer scenarioInstanceId;          // the ID of the scenario instance
	float timeStamp;                     // the time of the update (seconds since epoch)
	sequence<string> outputFieldValues;  // sequence of OUTPUT field values in string form
}


/**
 * A general Acknowledgement event that is the "response" to various "request"
 * events such as Create, Edit, Delete.
 *
 * Direction: From the correlator to the client.
 *
 * Channel: <scenarioId>.Control
 */
event Acknowledge { 
	string scenarioId;                   // the unique name of the scenario
	integer messageId;                   // the unique message ID (for request-response matching)
	integer scenarioInstanceId;          // the id of the scenario instance
	boolean success;                     // boolean indication of success
	sequence<string> outputFieldValues;  // sequence of the OUTPUT field values in string form, 
	                                     //   or an empty sequence if success = false
}


/**
 * Indicates that a specific instance of a specific scenario has changed 
 * state, where valid states include "ENDED", "FAILED", "RUNNING".
 *
 * Direction: From the correlator to the client.
 *
 * Channel: <scenarioId>.Data and <scenarioId>.Data.Raw
 */
event StateChange { 
	string scenarioId;                   // the unique name of the scenario.
	integer scenarioInstanceId;          // the ID of the scenario instance.
	string state;                        // the new state.
}


/**
 * Request that each scenario loaded in the correlator send its meta
 * information out on the supplied channel. When all scenarios have
 * sent out this information, a final RequestScenariosDone event will
 * be sent on the same channel.
 *
 * As soon as this event is received, a RequestScenariosAck will be
 * sent on the same channel so client can stop resending the RequestScenarios
 * event.
 *
 * See also: Scenario, RequestScenariosDone, RequestScenariosAck
 *
 * Direction: From the client to the correlator.
 *
 * Response: Scenario() from each loaded scenario.
 */
event RequestScenarios { 
	// renamed for clarity - was Request
	string channel;                      // Name of the private response channel.
}


/**
 * This is a simple marker event that is sent by the correlator to indicate 
 * that it has finished sending all of the Scenario events in response
 * to a RequestScenarios event.
 * 
 * See also: RequestScenarios, Scenario.
 *
 * Direction: From the correlator to the client.
 *
 * Channel: The private channel that was specified in the RequestScenarios event.
 */
event RequestScenariosDone {}

/* This is a simple ack event that is sent by the correlator to indicate the
 * RequestScenarios event is received and the request is being processed
 *
 * See also: RequestScenarios
 *
 * Direction: From the correlator to the client.
 *
 * Channel: The private channel that was specified in the RequestScenarios event.
 */
event RequestScenariosAck {}

/**
 * Request that each instance of the specified scenario send an Instance event 
 * out on the supplied channel. When all instances for the scenario have been 
 * sent out, a final RequestInstancesDone event will be sent on the same channel.
 *
 * See also: Instance, RequestInstancesDone
 *
 * Direction: From the client to the correlator.
 *
 * Response: Instance() from each scenario instance.
 */
event RequestInstancesOnChannel { 
	string scenarioId;                   // Identifier of the scenario for which to return instances. 
	integer messageId;                   // the unique message ID (for request-response matching)
	string channel;                      // Name of the private response channel.
}

/**
 * Request that each instance for the specified user of the specified scenario
 * send an Instance event out on the supplied channel. When all instances for
 * the scenario have been sent out, a final RequestInstancesDone event will be 
 * sent on the same channel.
 *
 * See also: Instance, RequestInstancesDone
 *
 * Direction: From the client to the correlator.
 *
 * Response: Instance() from each scenario instance.
 */
event RequestInstancesOnChannelByUser { 
	string scenarioId;                   // Identifier of the scenario for which to return instances. 
	integer messageId;                   // the unique message ID (for request-response matching)
	string channel;                      // Name of the private response channel.
	string owner;                        // the username to filter by
}


/**
 * This is a simple marker event that is sent by the correlator to indicate 
 * that it has finished sending all of the Instance events in response
 * to a RequestInstancesInternal event.
 * 
 * See also: RequestInstancesInternal, Scenario.
 *
 * Direction: From the correlator to the client.
 *
 * Channel: A unique private channel as specified by the client in a 
 *          RequestScenariosOnChannel event.
 *
 *          Note that previously it would have been on <scenarioId>.Data and 
 *          <scenarioId>.Data.Raw, but that behaviour is now deprecated.
 */
event RequestInstancesDone {
	string scenarioId;                   // Identifier of the scenario for instances were returned. 	
	integer messageId;                   // the unique message ID (for request-response matching)
}


/**
 * Describes the meta-information about a scenario that is loaded in the 
 * correlator.
 * 
 * See also: RequestScenarios, RequestScenariosDone, ScenarioUnloaded
 * 
 * Direction: From correlator to client.
 *
 * Channel:   1) com.apama.scenario to broadcast when loaded.
 *            2) A unique private channel as specified by the client in a 
 *               RequestScenarios event.
 *
 * This event has gained the executionMode field in Apama 4.2
 */
event Scenario {
	string scenarioId;                   // unique identifier for Scenario, e.g. Scenario_statistical$002darbitrage
	string displayName;                  // user-specified name for Scenario, e.g. statistical-arbitrage
	string description;                  // description of the Scenario
	sequence<string> inputNames;         // input parameter names
	sequence<string> inputTypes;         // input parameter types
	sequence<string> inputConstraints;   // input parameter contraints
	sequence<string> inputDefaults;      // input parameter default values
	sequence<string> outputNames;        // output parameter names
	sequence<string> outputTypes;        // output parameter types
	integer executionMode;               // 0 = serial, 1 = parallel, 2 = parallel child. New as of 4.2
	dictionary<string, string> extraParams; // Additional parameters
}



/**
 * Indicates that a specific Scenario definition is being unloaded.
 *
 * Direction: From the correlator to the client.
 *
 * Channel: <scenarioId>.Control
 */
event ScenarioUnloaded { 
	string scenarioId;                   // the unique name of the scenario
}

/**
 * Provides a dump of the current state of a scenario instance.
 * The event definition is identical to the Created event, and includes the 
 * owner (user), initial state, and current values for all input fields and 
 * all output fields.
 *
 * Instance events are sent in response to RequestInstancesOnChannel event 
 * and the deprecated RequestInstancesInternal event; 
 *
 * See also: RequestInstancesOnChannel, RequestInstancesDone, RequestInstancesInternal
 *
 * Direction: From the correlator to the client.
 *
 * Channel: A unique private channel as specified by the client in a 
 *          RequestScenariosOnChannel event.
 *
 *          Note that previously it would have been on <scenarioId>.Data and 
 *          <scenarioId>.Data.Raw, but that behaviour is now deprecated.
 */
event Instance {
	string scenarioId;                   // the unique name of the scenario. 
	integer messageId;                   // the unique message ID (for request-response matching)
	integer scenarioInstanceId;          // the ID of the scenario instance. 
	string owner;                        // the owner (user) of the instance.
	string state;                        // the initial state of the instance.
	sequence<string> inputFieldValues;   // sequence of INPUT field values in string form. 
	sequence<string> outputFieldValues;  // sequence of OUTPUT field values in string form. 
}


/**
 * Indicates this shared MonitorScript has been loaded.
 *
 * Direction: From the correlator to the client.
 *
 * Channel: com.apama.scenario to broadcast when loaded.
 */
event ScenarioServiceLoaded { 
}

/**
 * Indicates this shared MonitorScript is being unloaded.
 *
 * Direction: From the correlator to the client.
 *
 * Channel: com.apama.scenario to broadcast when unloaded.
 */
event ScenarioServiceUnloaded { 
}


/**
 * Set the period over which updates will be queued and coalesced before being
 * sent out on the data channel. Defaults to zero, which means they won't be
 * queued. If it is negative then we won't send any updates on the data channel.
 * This event is deprecated and the ConfigureUpdates event should be used 
 * instead (see below)
 */
event SetThrottlingPeriod {
	float period;   // The period in seconds. Default zero.
}


/**
 * Configures how updates are sent from scenarios.
 * Each scenario is controlled by two configurations - a global default,
 * and an optional per scenario configuration.  The per scenario
 * configuration takes precedence over the global default.
 * The configuration is made up of a number of entries in 
 * the configuration dictionary. The ConfigureUpdate event 
 * is merged into any previous configuration.
 *
 * Global configuration can be modified by specifying an empty string 
 * for scenarioId, and empty values remove values.
 */
event ConfigureUpdates {
	/** Specifies the scenario the configuratio will apply to, or use 
		empty string "" to specify a global default. 
	*/
	string scenarioId;
	/** 
	 * A set of the configurations modified by this event
	 * the key and meaning is one of:
	 * sendThrottled - boolean - whether to send Updates to the 
	 *                           Throttled (.Data) channel (default=true)
	 * throttlePeriod - float - period with which to send Updates. 
	 *                          0.0 means updates are not throttled - 
	 *                          every update is sent on the Throttled 
	 *                          channel. (default=0.0)
	 * sendRaw - boolean - whether to send Updates on the Raw channel 
	 *                     (.Raw) (default=true)
 	 * sendThrottledUser - boolean - whether to send Updates to the 
	 *                     throttled filtered (.Data:username) channel
	 *                     (default=false)
 	 * sendRawUser - boolean - whether to send Updates to the Raw 
	 *                     channel (.Raw:username) (default=false)
	 * routeUpdate - boolean - whether to route Update (and Edited, Deleted) events.
	 * An empty value removes that entry from the configuration
	 */
	dictionary<string,string> configuration;
}

/**
 * Immediately flushes to receivers any scenario Update events that were 
 * waiting for the next throttling period before being sent. 
 * 
 */
event SendQueuedUpdatesNow {
	
}

/* ==========================================================================
 * The following describes INTERNAL event definitions that should not be sent 
 * into the correlator, nor relied upon.
 * ==========================================================================
 */

/**
 * Request that each instance of the specified scenario send an Instance event 
 * out on the scenario Data or Raw channel. When all instances for the scenario
 * have been sent out, a final RequestInstancesDone event will be sent on the 
 * same channel.
 *
 * See also: Instance, RequestInstancesDone, RequestInstancesOnChannel, RequestInstancesOnChannelByUser
 *
 * Direction: From the ScenarioService to the scenario
 *
 * Response: Instance() from each scenario instance, RequestInstancesDone when finished.
 */
event RequestInstancesInternal { 
	string scenarioId;                   // Identifier of the scenario for which to return instances. 
	integer messageId;                   // the unique message ID (for request-response matching)
	string channel;                      // Name of the private response channel.
	boolean internal;                    // if true, events should be routed/ send-to'd the main context
	string owner;                        // owner filter (optional)
	boolean ownerFilter;                 // whether to filter by owner
}

/**
 * A scenario has finished running, but is still discoverable.
 * (i.e. entered end state or failed - but not deleted).
 * Note that this event contains the state as of the last
 * Update/ Edited event - i.e. if an action modified an output variable 
 * and then caused the scenario to fail, the prior modification
 * would not be reflected in this event.
 *
 * This event contains sufficient information for discovery of the
 * scenario instance later
 * 
 * Direction: from scenarios to the ScenarioService sub-monitor (spawned per scenario)
 */
event ScenarioFinished {
	string scenarioId;                   // Identifier of the scenario which has failed. 
	integer scenarioInstanceId;          // the ID of the scenario instance. 
	string owner;                        // the owner (user) of the instance.
	string state;                        // the initial state of the instance.
	sequence<string> inputFieldValues;   // sequence of INPUT field values in string form. 
	sequence<string> outputFieldValues;  // sequence of OUTPUT field values in string form. 
}
/**
 * Only used internally to tell all the scenarios to start routing their
 * meta data (Scenario). It is followed by a sweeper FinishedScenarioRecovery
 * event which indicates that all the scenarios have reported in.
 */
event StartScenarioRecovery {}

/**
 * Sweeper event to indicate that scenario recovery is done. Only used internally.
 */
event FinishedScenarioRecovery {}

/**
 * Trigger discovery of a parallel scenario. Sent from a sub-monitor of
 * ScenarioService to RequestInstancesHandler to create a new sub-monitor.
 */
event RequestInstancesParallel {
	RequestInstancesInternal request;          // the original request event
	dictionary<integer, context> instances;    // all scenario instances and their running context
	integer highestInstanceId;                 // the highest scenarioInstanceId listed in instances (or more accurately, the highest when discovery started)
}

/**
 * Discovery protocol of a parallel scenario. Sent from a scenario instance
 * to RequestInstancesHandler.
 */
event RequestInstancesParallelDone {
	string scenarioId;                   // the unique name of the scenario
	integer messageId;                   // the unique message ID (for request-response matching)
	integer scenarioInstanceId;          // the ID of the scenario instance
}

/**
 * Notification of a new scenario instance
 */
event ParallelStarting {
	string scenarioId;                   // the unique name of the scenario
	integer scenarioInstanceId;          // the ID of the scenario instance
	string owner;                        // the owner of the scenario instance
	context runningCtx;                  // the context the scenario is running in
}

/**
 * Get the current configuration for a given scenario and the default configuration
 */
event GetConfiguration {
	string scenarioId;                   // the unique name of the scenario
}

/**
 * The current configuration for a given scenario and the default configuration
 * @see ConfigureUpdates
 */
event Configuration {
	string scenarioId;                        // the unique name of the scenario
	dictionary<string, string> defaults;      // the global defaults
	dictionary<string, string> configuration; // the scenario configuration (takes precedence)
}


/**
 * An operation has completed. Sent from parallel scenarios to the main context.
 */
event OperationCompleted {
	string scenarioId;
	integer scenarioInstanceId;
	integer messageId;
}

/**
 * Notification that a scenario has loaded a ConfigureUpdates event
 */
event ScenarioProcessedUpdates {
	string scenarioId;
}

/**
 * Request all configuration
 */
event GetAllConfiguration {
	integer requestId;
}

/** 
 * Response all configuration
 */
event AllConfiguration {
	integer requestId;
	dictionary<string, string> defaultConfig;
	dictionary<string, dictionary<string, string> > configurations;
}


/**
 * Library of utiltiy actions
 */
event ScenarioServiceLibrary {

	/**
	 * Get the control channel for a scenario Id. This channel
	 * is always enabled (uses an event set scenario ID)
	 */
	action getControlChannel(string scenarioId) returns string
	{
		return scenarioId+".Control";
	}
	/**
	 * Get the data channel for a scenario ID. This channel 
	 * is enabled by the sendThrottled configuration key and 
	 * the throttlePeriod key (Update events may be throttled)
	 */
	action getDataChannel(string scenarioId) returns string
	{
		return scenarioId+".Data";
	}
	/**
	 * Get the raw channel for a scenario ID. This channel
	 * is enabled by the sendRaw configuration key.
	 */
	action getRawChannel(string scenarioId) returns string
	{
		return scenarioId+".Data.Raw";
	}
	/**
	 * Get the data channel for a scenario Id. This channel 
	 * is enabled by the sendThrottledUser configuration key and 
	 * the throttlePeriod key (Update events may be throttled)
	 */
	action getDataUserChannel(string channel, string owner) returns string
	{
		return channel+":"+owner;
	}
	/**
	 * Get the raw channel for a scenario Id. This channel
	 * is enabled by the sendRawUser configuration key.
	 */
	action getRawUserChannel(string channel, string owner) returns string
	{
		return channel+":"+owner;
	}
	
	/**
	 * Merge configuration. Any entries in updates overwrite entries in configuration.
	 * An empty string value removes the value.
	 * @see ConfigureUpdates
	 */
	action mergeConfiguration(dictionary<string, string> updates, dictionary<string, string> configuration) {
		string k;
		for k in updates.keys() {
			configuration[k]:=updates[k];
			if updates[k]="" then {
				configuration.remove(k);
			}
		}
	}
	
	// implementation note: the defaults for sendThrottled, sendRaw, throttlePeriod, etc are in the following actions:
	/**
	 * Get the sendThrottled value from the given configuration
	 * @see ConfigureUpdates
	 */
	action getSendThrottled(dictionary<string,string> defaults, dictionary<string,string> config) returns boolean {
		string c:=getConfig(defaults, config, "sendThrottled", "true");
		return c = "true";
	}

	/**
	 * Get the sendThrottledUser value from the given configuration
	 * @see ConfigureUpdates
	 */
	action getSendThrottledUser(dictionary<string,string> defaults, dictionary<string,string> config) returns boolean {
		string c:=getConfig(defaults, config, "sendThrottledUser", "false");
		return c = "true";
	}
	
	/**
	 * Get the sendRaw value from the given configuration
	 * @see ConfigureUpdates
	 */
	action getSendRaw(dictionary<string,string> defaults, dictionary<string,string> config) returns boolean {
		string c:=getConfig(defaults, config, "sendRaw", "true");
		return c = "true";
	}
	
	/**
	 * Get the sendRawUser value from the given configuration
	 * @see ConfigureUpdates
	 */
	action getSendRawUser(dictionary<string,string> defaults, dictionary<string,string> config) returns boolean {
		string c:=getConfig(defaults, config, "sendRawUser", "false");
		return c = "true";
	}
	
	/**
	 * Get the throttlePeriod value from the given configuration
	 * @see ConfigureUpdates
	 */
	action getThrottlePeriod(dictionary<string,string> defaults, dictionary<string,string> config) returns float {
		string c:=getConfig(defaults, config, "throttlePeriod", "0.0");
		return float.parse(c);
	}
	
	/**
	 * Get the routeUpdate value from the given configuration
	 * @see ConfigureUpdates
	 */
	action getRouteUpdate(dictionary<string,string> defaults, dictionary<string,string> config) returns boolean {
		string c:=getConfig(defaults, config, "routeUpdate", "false");
		return c = "true";
	}
	

	/**
	 * Get the specified key from the configuration dictionaries, reverting to the default 
	 * if none specified.
	 */
	action getConfig(dictionary<string,string> defaults,
	                 dictionary<string,string> config, 
	                 string key, string _default) returns string {
		if config.hasKey(key) then {
			return config[key];
		}
		if defaults.hasKey(key) then {
			return defaults[key];
		}
		return _default;
	}

	action configurationManager(dictionary<string, string> defaultConfig, dictionary<string, dictionary<string, string> > configurations) {
		// the recognised ConfigureUpdates configuration keys, as above:
		dictionary<string,boolean> KNOWN_CONFIG_KEYS := {"sendThrottled":true, "throttlePeriod":false,
		 "sendRaw":true, "sendThrottledUser":true, "sendRawUser":true, "routeUpdate":true};

		dictionary <string,string> EMPTY_DICT:=new dictionary<string,string>;
		ConfigureUpdates cu;
		on all ConfigureUpdates():cu {
			string key;
			for key in cu.configuration.keys() {
				if not KNOWN_CONFIG_KEYS.hasKey(key) then {
					log "Unrecognized configuration property "+key+" in event "+cu.toString() at WARN;
				}
			}
			if cu.scenarioId = "" then {
				mergeConfiguration(cu.configuration, defaultConfig);
				log "Received "+cu.toString()+" : defaults applicable to all scenarios" at INFO;
			} else {
				if not configurations.hasKey(cu.scenarioId) then {
					configurations.add(cu.scenarioId, new dictionary<string,string>);
				}
				mergeConfiguration(cu.configuration, configurations[cu.scenarioId]);
				on ScenarioProcessedUpdates(cu.scenarioId) -> completed ConfigureUpdates(scenarioId=cu.scenarioId) {
					log "Received "+cu.toString()+" : applied to scenario" at INFO;
				}
				on completed ConfigureUpdates(scenarioId=cu.scenarioId) and not ScenarioProcessedUpdates(cu.scenarioId) {
					log "Received "+cu.toString()+" : for scenario that is not yet defined" at INFO;
				}
			}
		}

		GetConfiguration getConfig;
		on all GetConfiguration():getConfig {
			dictionary<string,string> config:=EMPTY_DICT;
			if configurations.hasKey(getConfig.scenarioId) then {
				config:=configurations[getConfig.scenarioId];
			}
			route Configuration(getConfig.scenarioId, defaultConfig, config);
		}	
		GetAllConfiguration gac;
		on all GetAllConfiguration():gac {
			route AllConfiguration(gac.requestId, defaultConfig, configurations);
		}
	}
		
}

event CallbackHelper {
	sequence<action<> > callbacks;
	action callback {
		action<> c;
		for c in callbacks {
			c();
		}
	}
}



/**
 * Base event for tracking configuration for a given scenario
 */
event ScenarioServiceUpdaterBase {
	// these are internal and should not be set by users
	string scenarioId;
	dictionary<string,string> defaultConfig;
	dictionary<string,string> config;
	ScenarioServiceLibrary lib;
	boolean sendThrottled;
	boolean sendRaw;
	boolean sendAny;
	boolean emitAny;
	boolean sendThrottledUser;
	boolean sendRawUser;
	boolean routeUpdate;
	float throttlePeriod;
	float throttleStart;
	sequence<listener> listeners;
	string controlChannel;
	string rawChannel;
	string dataChannel;

	/**
	 * Called by monitor at onload time
	 * Will maintain configuration for this scenario
	 * @param sId the scenarioId
	 */
	action init(string sId, action<> cb_onUpdate) {
		scenarioId:=sId;
		controlChannel := lib.getControlChannel(scenarioId);
		rawChannel := lib.getRawChannel(scenarioId);
		dataChannel := lib.getDataChannel(scenarioId);
		route GetConfiguration(scenarioId);
		Configuration c;
		listener l:=on Configuration(scenarioId=scenarioId):c {
			config := c.configuration;
			defaultConfig := c.defaults;
			configurationUpdated();
			cb_onUpdate();
		}
		listeners.append(l);
	}

	/**
	 * Listen for further configuration changes.
	 * @param cb_onUpdate callback upon configuration having been updated
	 */	
	action listenToConfigureUpdates(action<> cb_onUpdate) {
		ConfigureUpdates cu;
		listener l:=on all ConfigureUpdates(scenarioId=""):cu or all ConfigureUpdates(scenarioId=scenarioId):cu {
			if(cu.scenarioId != "") then {
				route ScenarioProcessedUpdates(cu.scenarioId);
			}
			onConfigureUpdates(cu);
			cb_onUpdate();
		}
		listeners.append(l);
	}

	/**
	 * Called when new ConfigureUpdates event available
	 * @param sId the scenarioId
	 */
	action onConfigureUpdates(ConfigureUpdates cu) {
		if cu.scenarioId = "" then {
			lib.mergeConfiguration(cu.configuration, defaultConfig);
		} else {
			lib.mergeConfiguration(cu.configuration, config);
		}
		configurationUpdated();
	}
	
	/**
	 * Called when the configuration should be re-parsed.
	 * @param sId the scenarioId
	 */
	action configurationUpdated() {
		sendThrottled:=lib.getSendThrottled(defaultConfig, config);
		sendThrottledUser:=lib.getSendThrottledUser(defaultConfig, config);
		if sendThrottled or sendThrottledUser then {
			throttlePeriod:=lib.getThrottlePeriod(defaultConfig, config);
			if(throttlePeriod < 0.0) then {
				sendThrottled:=false;
				sendThrottledUser:=false;
			}
			throttleStart:=currentTime;
		}
		sendRaw:=lib.getSendRaw(defaultConfig, config);
		sendRawUser:=lib.getSendRawUser(defaultConfig, config);
		routeUpdate:=lib.getRouteUpdate(defaultConfig, config);
		sendAny:= sendRaw or sendThrottled or routeUpdate or sendRawUser or sendThrottledUser;
		emitAny:= sendRaw or sendThrottled or sendRawUser or sendThrottledUser;
	}

	/** 
	 * Get whether this scenario should send on the throttled (Data) channel
	 */
	action isSendThrottled() returns boolean {
		return sendThrottled or sendThrottledUser;
	}

	/** 
	 * Get whether this scenario should send on the raw channel
	 */
	action isSendRaw() returns boolean {
		return sendRaw or sendRawUser;
	}

	action doEmit(string emitted, string owner) {
		if sendRaw then {
			emit emitted to rawChannel;
		}
		if sendThrottled then {
			emit emitted to dataChannel;
		}
		if sendRawUser then {
			emit emitted to lib.getRawUserChannel(rawChannel, owner);
		}
		if sendThrottledUser then {
			emit emitted to lib.getDataUserChannel(dataChannel, owner);
		}
	}

	/**
 	 * Kill any listeners this object has started
	 */
	action destroy() {
		listener l;
		for l in listeners {
			l.quit();
		}
	}
}


/**
 * Utility event for tracking configuration for a given scenario.
 * This event is suitable for use by monitors which spawn per instance
 * (e.g. Scenarios)
 * 
 * This event also uses a callback to get the updates (supplied in
 * instanceInit). If the scenario is configured to only send throttled 
 * updates, the callback is only called when the throttling period 
 * determines an update should be sent - thus, the scenario does not
 * need to generate the output sequence<string> except when needed,
 * which can improve performance in such a configuration.
 * 
 * actions starting with an underscore should be considered private 
 * and not called by users of this event.
 */
event ScenarioServiceUpdaterSingleInstance {
	// these are internal and should not be set by users
	string scenarioId;
	integer scenarioInstanceId;
	ScenarioServiceLibrary lib;
	listener throttlingListener;
	ScenarioServiceUpdaterBase base;
	boolean havePending;
	float latestUpdate;
	action<> returns sequence<string> getUpdate;
	Update update;
	boolean needUpdate;
	context mainContext;
	string owner;
	string controlChannel;
	string rawChannel;
	string dataChannel;

	/**
	 * Called by monitor at onload time
	 * Will maintain configuration for this scenario
	 */
	action init(string sId) {
		init_cb(sId, _noopAction);
	}
	
	/**
	 * Called by monitor at onload time
	 * Will maintain configuration for this scenario.
	 * cb_init is called when initialisation is complete
	 */
	action init_cb(string sId, action<> cb_init) {
		base.init(sId, cb_init);
		scenarioId:=sId;
		controlChannel := lib.getControlChannel(scenarioId);
		rawChannel := lib.getRawChannel(scenarioId);
		dataChannel := lib.getDataChannel(scenarioId);
		base.listenToConfigureUpdates(_noopAction);
		mainContext:=context.current();
	}

	action _noopAction() {
	}
	

	/**
	 * Called by monitor after spawn
	 * Will maintain configuration for this scenario, and update listeners appropriately.
	 * @param getUpdateCallback a callback to get the latest outputFieldValues - may be called at any time, must 
         *        always return a consistent set of outputs
	 */
	action instanceInit(integer id, action<> returns sequence<string> getUpdateCallback, string _owner) {
		scenarioInstanceId:=id;
		owner:=_owner;
		getUpdate:=getUpdateCallback;
		update.scenarioId:=scenarioId;
		update.scenarioInstanceId:=scenarioInstanceId;
		base.listenToConfigureUpdates(_configurationUpdated);
		_configurationUpdated();
		listener l:=on all SendQueuedUpdatesNow() {
			_sendThrottledUpdate();
		}
		base.listeners.append(l);
	}

	/** 
	 * Get whether this scenario should route updates
	 */
	action isRouteUpdate() returns boolean {
		return base.routeUpdate;
	}

	/**
 	 * Kill any listeners this object has started
	 */
	action destroy() {
		base.destroy();
		throttlingListener.quit();
	}
	  
	/**
	 * called in instances (not factories) when configuration has changed
	 */
	action _configurationUpdated {
		if base.isSendThrottled() then {
			throttlingListener.quit();
			flushPending();
			if(base.throttlePeriod >= 0.0) then {
				if havePending then {
					_setupThrottleListener();
				}
			}
		}
	}

	/**
	 * set up a throttled listener according to throttlePeriod control
	 */
	action _setupThrottleListener {
		if base.throttlePeriod > 0.0 then {
			float offset:=currentTime-base.throttleStart;
			float t:=((offset/base.throttlePeriod).floor()+1).toFloat();
			throttlingListener:=on wait((t*base.throttlePeriod)-offset) {
				_sendThrottledUpdate();
			}
		} else {
			_sendThrottledUpdate();
		}
	}

	/**
	 * actually send an update on the throttled channel
	 */
	action _sendThrottledUpdate {
		if not havePending then {
			return;
		}
		if needUpdate then {
			update.outputFieldValues:=getUpdate();
			update.timeStamp:=latestUpdate;
			needUpdate:=false;
		}
		if base.sendThrottled then {
			send update to dataChannel;
		}
		if base.sendThrottledUser then {
			send update to lib.getDataUserChannel(dataChannel, owner);
		}
		havePending:=false;
	}

	/**
	 * flush any pending update on the throttled channel.
	 */
	action flushPending() {
		if havePending then {
			_sendThrottledUpdate();
			throttlingListener.quit();
		}
	}	

	/**
 	 * Called when a new update is available.
	 */
	action newUpdateAvailable() {
		needUpdate:=true;
		latestUpdate:=currentTime;
 		if base.sendRaw or base.routeUpdate then {
			if needUpdate then {
				update.outputFieldValues:=getUpdate();
				update.timeStamp:=currentTime;
				needUpdate:=false;
			}
			if base.sendRaw then {
				send update to rawChannel;
			}
			if base.sendRawUser then {
				send update to lib.getRawUserChannel(rawChannel, owner);
			}
			if base.routeUpdate then {
				route update;
			}
		}
		if base.isSendThrottled() and not havePending then {
			havePending:=true;
			_setupThrottleListener();
		}
	}
	
	/**
 	 * Called to send a new Acknowledgement event.
	 */
	action emitAcknowledgement(integer messageId) {
		Acknowledge ack:=Acknowledge(scenarioId, messageId, scenarioInstanceId, true, getUpdate());
		if base.routeUpdate then {
			route ack;
		}
		if base.emitAny then {
			send ack to controlChannel;
		}
	}
				
	/**
 	 * Called to send a new Nak event.
	 */
	action emitNack(integer messageId) {
		Acknowledge nack:=Acknowledge(scenarioId, messageId, scenarioInstanceId, false, new sequence<string>);
		if base.routeUpdate then {
			route nack;
		}
		if base.emitAny then {
			send nack to controlChannel;
		}
	}
	
	/**
 	 * Called to send a new Created event.
	 */
	action emitCreated(integer messageId, string owner, string state, sequence<string> inputVariables, sequence<string> outputVariables) {
		if base.sendAny then {
			Created created:=Created(scenarioId, messageId, scenarioInstanceId, owner, state, inputVariables, outputVariables);
			route created;
			if base.emitAny then {
				base.doEmit(created.toString(), owner);
			}
		}
	}
	
	/**
 	 * Called to send a new Edited event.
	 */
	action emitEdited(integer messageId, sequence<string> inputVariables) {
		flushPending();
		if base.sendAny then {
			Edited edited:=Edited(scenarioId, messageId, scenarioInstanceId, inputVariables, getUpdate());
			if base.routeUpdate then {
				route edited;
			}
			if base.emitAny then {
				base.doEmit(edited.toString(), owner);
			}
		}
		emitOpCompleted(messageId);
	}

	/**
 	 * Called to say an operation has completed; implied by emitEdited. Must be called before emitInstanceDied.
	 */
	action emitOpCompleted(integer messageId) {
		if(context.current().getId()!=mainContext.getId()) then {
			send OperationCompleted(scenarioId, scenarioInstanceId, messageId) to mainContext;
		}
	}

	/**
 	 * Called to send a new Deleted event.
	 */
	action emitDeleted(integer messageId) {
		flushPending();
		if base.sendAny then {
			Deleted deleted:=Deleted(scenarioId, messageId, scenarioInstanceId);
			if base.routeUpdate then {
				route deleted;
			}
			if base.emitAny then {
				base.doEmit(deleted.toString(), owner);
			}
		}
		throttlingListener.quit();
		notifyInstanceDied();
	}

	/**
 	 * Called to send an instance Died event (either of failed, ended)
	 */
	action emitInstanceDied() {
		flushPending();
		if base.sendAny then {
			InstanceDied iDied:=InstanceDied(scenarioId, scenarioInstanceId);
			if base.emitAny then {
				base.doEmit(iDied.toString(), owner);
			}
			if mainContext.getId()=context.current().getId() then {
				route iDied;
			}
		}
		throttlingListener.quit();
	}

	/**
 	 * Called to notify the scenario service monitor that we have gone away - must be called 
 	 * after emitting any events regarding this instance going away. Implied by emitDeleted.
	 */
	action notifyInstanceDied() {
		if mainContext.getId()!=context.current().getId() then {
			InstanceDied iDied:=InstanceDied(scenarioId, scenarioInstanceId);
			
			// give a chance for anyone monitoring this from its own context 
			// to handle the InstanceDied before the main context
			if base.routeUpdate then {
				route InstanceDied(scenarioId, scenarioInstanceId);
			}

			send iDied to mainContext;
		}
	}
	
	/**
 	 * Called to send a new StateChange event.
	 */
	action emitStateChange(string state) {
		flushPending();
		StateChange stchange:=StateChange(scenarioId, scenarioInstanceId, state);
		if mainContext.getId()!=context.current().getId() then {
			send stchange to mainContext;
		} else {
			route stchange;
		}
		if base.emitAny then {
			base.doEmit(stchange.toString(), owner);
		}
	}

	/**
 	 * Called to send an instance in response to a RequestInstancesInternal event
	 */
	action emitInstance(RequestInstancesInternal request, string owner, string state, sequence<string> input, sequence<string> output) {
		Instance instance:=Instance(scenarioId, request.messageId, scenarioInstanceId, owner, state, input, output);
		if request.internal then {
			if mainContext.getId() != context.current().getId() then {
				send instance to mainContext;
			} else {
				route instance;
			}
		} else {
			if(base.emitAny) then {
				send instance to request.channel;
			}
		}
		if mainContext.getId() != context.current().getId() then {
			send RequestInstancesParallelDone(scenarioId, request.messageId, scenarioInstanceId) to mainContext;
		}
	}

	/**
 	 * Called when the instance has failed.  input and output are the input
 	 * and output variables as at the last Update/ Edited point.
	 */
	action finished(string state, string owner, sequence<string> input, sequence<string> output) {
		ScenarioFinished scenFinished:=ScenarioFinished(scenarioId, scenarioInstanceId, owner, state, input, output);
		if mainContext.getId() != context.current().getId() then {
			send scenFinished to mainContext;
		} else {
			route scenFinished;
		}
	}
	
}


/**
 * Utilitiy event for tracking configuration for a given scenario.
 * This event is suitable for use by monitors which spawn per scenario,
 * but not per instance. (e.g. ScenarioService, DataViewService)
 * 
 * actions starting with an underscore should be considered private 
 * and not called by users of this event.
 * 
 * Note that this updater only honours sendThrottledUser changes at the next throttling period
 * (it does not record the owner if sendThrottledUser is not true)
 */
event ScenarioServiceUpdaterMultipleInstances {
	// these are internal and should not be set by users
	string scenarioId;
	ScenarioServiceLibrary lib;
	listener throttlingListener;
	ScenarioServiceUpdaterBase base;
	boolean currentlySendingThrottledUser;
	dictionary<integer, Update> updates;
	dictionary<integer, string> owners;
	context mainContext;
	string controlChannel;
	string rawChannel;
	string dataChannel;

	/**
	 * Called by monitor for each scenario
	 * Will maintain configuration for this scenario Id
	 */
	action init(string sId, context mainCtx) {
		_init(sId, mainCtx, _configurationUpdated);
	}
	
	/**
	 * Called by monitor for each scenario
	 * Will maintain configuration for this scenario Id
	 */
	action init_cb(string sId, context mainCtx, action<> cb_initComplete) {
		CallbackHelper callbackHelper:=new CallbackHelper;
		callbackHelper.callbacks.append(cb_initComplete);
		callbackHelper.callbacks.append(_configurationUpdated);
		_init(sId, mainCtx, callbackHelper.callback);
	}

	/**
	 * Implementation of init and init_cb
	 */
	action _init(string sId, context mainCtx, action<> cb_initComplete) {
		base.init(sId, cb_initComplete);
		mainContext:=mainCtx;
		scenarioId:=sId;
		controlChannel := lib.getControlChannel(scenarioId);
		rawChannel := lib.getRawChannel(scenarioId);
		dataChannel := lib.getDataChannel(scenarioId);
		listener l:=on all SendQueuedUpdatesNow() {
			_sendThrottledUpdates();
		}
		base.listeners.append(l);
		base.listenToConfigureUpdates(_configurationUpdated);
	}
	
	/** 
	 * Get whether this scenario should route updates
	 */
	action isRouteUpdate() returns boolean {
		return base.routeUpdate;
	}

	/**
 	 * Kill any listeners this object has started
	 */
	action destroy() {
		base.destroy();
		throttlingListener.quit();
	}
	  

	/**
	 * called in instances (not factories) when configuration has changed
	 */
	action _configurationUpdated {
		if base.isSendThrottled() then {
			throttlingListener.quit();
			flushPending();
			if(base.throttlePeriod >= 0.0) then {
				_setupThrottleListener();
			}
		}
	}

	/**
	 * set up a throttled listener according to throttlePeriod control
	 */
	action _setupThrottleListener {
		if base.throttlePeriod > 0.0 then {
			throttlingListener:=on all wait(base.throttlePeriod) {
				_sendThrottledUpdates();
			}
		} else {
			_sendThrottledUpdates();
		}
	}

	/**
	 * actually send an update on the throttled channel
	 */
	action _sendThrottledUpdates {
		integer instance;
		if base.sendThrottled then {
			for instance in updates.keys() {
				send updates[instance] to dataChannel;
			}
		}
		if currentlySendingThrottledUser then {
			for instance in updates.keys() {
				send updates[instance] to lib.getDataUserChannel(dataChannel, owners[instance]);
			}
		}
		owners.clear();
		updates.clear();
		currentlySendingThrottledUser := base.sendThrottledUser;
	}

	/**
	 * flush any pending update on the throttled channel.
	 */
	action flushPending() {
		_sendThrottledUpdates();
	}	

	/**
 	 * Flush pending throttled data for one instance
	 */
	action flushPendingInstance(integer scenarioInstanceId) {
		if updates.hasKey(scenarioInstanceId) then {
			if base.sendThrottled then {
				send updates[scenarioInstanceId] to dataChannel;
			}
			if currentlySendingThrottledUser then {
				send updates[scenarioInstanceId] to lib.getDataUserChannel(dataChannel, owners[scenarioInstanceId]);
			}
			updates.remove(scenarioInstanceId);
			if owners.hasKey(scenarioInstanceId) then {
				owners.remove(scenarioInstanceId);
			}
		}
	}	

	/**
 	 * Called when a new update is available. (This variant allows setting of the time parameter)
	 */
	action emitUpdate_time(integer scenarioInstanceId, float time, sequence<string> output, string owner) {
		if base.sendAny then {
			Update update:=Update(scenarioId, scenarioInstanceId, time, output);
			if base.sendRaw then {
				send update to rawChannel;
			}
			if base.sendRawUser then {
				send update to lib.getRawUserChannel(rawChannel, owner);
			}
			if base.routeUpdate then {
				route update;
			}
			if base.isSendThrottled() then {
				if base.throttlePeriod > 0.0 then {
					updates.add(scenarioInstanceId, update);
					if currentlySendingThrottledUser then {
						owners.add(scenarioInstanceId, owner);
					}
				} else {
					send update to dataChannel;
				}
			}
		}
	}
	
	/**
 	 * Called when a new update is available.
	 */
	action emitUpdate(integer scenarioInstanceId, sequence<string> output, string owner) {
		emitUpdate_time(scenarioInstanceId, currentTime, output, owner);
	}

	/**
 	 * Called to send a new Acknowledgement event.
	 */
	action emitAcknowledgement(integer messageId, integer scenarioInstanceId, sequence<string> output) {
		Acknowledge ack:=Acknowledge(scenarioId, messageId, scenarioInstanceId, true, output);
		if base.routeUpdate then {
			route ack;
		}
		if base.emitAny then {
			send ack to controlChannel;
		}
	}
				
	/**
 	 * Called to send a new Nak event.
	 */
	action emitNack(integer messageId, integer scenarioInstanceId) {
		Acknowledge nack:=Acknowledge(scenarioId, messageId, scenarioInstanceId, false, new sequence<string>);
		if base.routeUpdate then {
			route nack;
		}
		if base.emitAny then {
			send nack to controlChannel;
		}
	}
	
	/**
 	 * Called to send a new Created event.
	 */
	action emitCreated(integer messageId, integer scenarioInstanceId, string owner, string state, sequence<string> inputVariables, sequence<string> outputVariables) {
		if base.sendAny then {
			Created created:=Created(scenarioId, messageId, scenarioInstanceId, owner, state, inputVariables, outputVariables);
			route created;
			if base.emitAny then {
				string sCreated:=created.toString();
				base.doEmit(sCreated, owner);
			}
		}
	}

	/**
 	 * Called to send any received events (except for instance) for this scenario.
	 */
	action emitReceivedEvents() {
		dictionary<integer, string> instanceOwners:=new dictionary<integer, string>;
		{
			Update update;
			listener l:=on all Update(scenarioId = scenarioId):update {
				if base.sendRaw then {
					send update to rawChannel;
				}
				if base.sendRawUser and instanceOwners.hasKey(update.scenarioInstanceId) then {	
					send update to lib.getRawUserChannel(rawChannel, instanceOwners[update.scenarioInstanceId]);
				}
				if base.isSendThrottled() then {
					if base.throttlePeriod > 0.0 then {
						updates.add(update.scenarioInstanceId, update);
						string owner:="*";
						if instanceOwners.hasKey(update.scenarioInstanceId) then {
							owner:=instanceOwners[update.scenarioInstanceId];
						}
						if currentlySendingThrottledUser then {
							owners.add(update.scenarioInstanceId, owner);
						}
					} else {
						send update to dataChannel;
					}
				}
			}
			base.listeners.append(l);
		}
		{
			Created created;
			listener l:=on all Created(scenarioId = scenarioId):created {
				if(created.owner != "*") then {
					instanceOwners.add(created.scenarioInstanceId, created.owner);
				}
				base.doEmit(created.toString(), created.owner);				
			}
			base.listeners.append(l);
		}
		{
			Deleted deleted;
			listener l:=on all Deleted(scenarioId = scenarioId):deleted {
				flushPendingInstance(deleted.scenarioInstanceId);
				string owner:="*";
				if instanceOwners.hasKey(deleted.scenarioInstanceId) then {
					owner:=instanceOwners[deleted.scenarioInstanceId];
					instanceOwners.remove(deleted.scenarioInstanceId);
				}
				base.doEmit(deleted.toString(), owner);		
			}
			base.listeners.append(l);
		}
		{
			Edited edited;
			listener l:=on all Edited(scenarioId = scenarioId):edited {
				flushPendingInstance(edited.scenarioInstanceId);
				string owner:="*";
				if instanceOwners.hasKey(edited.scenarioInstanceId) then {
					owner:=instanceOwners[edited.scenarioInstanceId];
				}
				base.doEmit(edited.toString(), owner);		
			}
			base.listeners.append(l);
		}
		{
			InstanceDied instanceDied;
			listener l:=on all InstanceDied(scenarioId = scenarioId):instanceDied {
				flushPendingInstance(instanceDied.scenarioInstanceId);
				string owner:="*";
				if instanceOwners.hasKey(instanceDied.scenarioInstanceId) then {
					owner:=instanceOwners[instanceDied.scenarioInstanceId];
				}
				base.doEmit(instanceDied.toString(), owner);		
			}
			base.listeners.append(l);
		}
	}
	
	/**
 	 * Called to send a new Edited event.
	 */
	action emitEdited(integer messageId, integer scenarioInstanceId, sequence<string> inputVariables, sequence<string> outputVariables, string owner) {
		flushPendingInstance(scenarioInstanceId);
		if base.sendAny then {
			Edited edited:=Edited(scenarioId, messageId, scenarioInstanceId, inputVariables, outputVariables);
			if base.routeUpdate then {
				route edited;
			}
			if base.emitAny then {
				base.doEmit(edited.toString(), owner);
			}
		}
		emitOpCompleted(messageId, scenarioInstanceId);
	}

	/**
 	 * Called to say an operation has completed; implied by emitEdited. Must be called before emitInstanceDied.
	 */
	action emitOpCompleted(integer messageId, integer scenarioInstanceId) {
		if(context.current().getId()!=mainContext.getId()) then {
			send OperationCompleted(scenarioId, scenarioInstanceId, messageId) to mainContext;
		}
	}

	/**
 	 * Called to send a new Deleted event.
	 */
	action emitDeleted(integer messageId, integer scenarioInstanceId, string owner) {
		flushPendingInstance(scenarioInstanceId);
		if base.sendAny then {
			Deleted deleted:=Deleted(scenarioId, messageId, scenarioInstanceId);
			if base.routeUpdate then {
				route deleted;
			}
			if base.emitAny then {
				base.doEmit(deleted.toString(), owner);
			}
		}
		notifyInstanceDied(scenarioInstanceId);
	}

	/**
 	 * Called to notify the scenario service monitor that we have gone away - must be called 
 	 * after emitting any events regarding this instance going away. Implied by emitDeleted.
	 */
	action notifyInstanceDied(integer scenarioInstanceId) {
		if mainContext.getId()!=context.current().getId() then {
			InstanceDied iDied:=InstanceDied(scenarioId, scenarioInstanceId);
			send iDied to mainContext;
		}
	}
	

	
	/**
 	 * Called to send an instance Died event (either of failed, ended)
	 */
	action emitInstanceDied(integer scenarioInstanceId, string owner) {
		flushPendingInstance(scenarioInstanceId);
		if base.sendAny then {
			InstanceDied iDied:=InstanceDied(scenarioId, scenarioInstanceId);
			if base.emitAny then {
				base.doEmit(iDied.toString(), owner);
			}
			if mainContext.getId()=context.current().getId() then {
				route iDied;
			}
		}
	}
	
	/**
 	 * Called to send a new StateChange event.
	 */
	action emitStateChange(string state, integer scenarioInstanceId, string owner) {
		flushPendingInstance(scenarioInstanceId);
		StateChange stchange:=StateChange(scenarioId, scenarioInstanceId, state);
		if mainContext.getId()!=context.current().getId() then {
			send stchange to mainContext;
		} else {
			route stchange;
		}
		if base.emitAny then {
			base.doEmit(stchange.toString(), owner);
		}
	}

	/**
 	 * Called to send an instance in response to a RequestInstancesInternal event
	 */
	action emitInstance(RequestInstancesInternal request, integer scenarioInstanceId, string owner, string state, sequence<string> input, sequence<string> output) {
		Instance instance:=Instance(scenarioId, request.messageId, scenarioInstanceId, owner, state, input, output);
		if request.internal then {
			if mainContext.getId() != context.current().getId() then {
				send instance to mainContext;
			} else {
				route instance;
			}
		} else {
			if(base.emitAny) then {
				send instance to request.channel;
			}
		}
		if mainContext.getId() != context.current().getId() then {
				send RequestInstancesParallelDone(scenarioId, request.messageId, scenarioInstanceId) to mainContext;
		}
	}
	/**
 	 * Called to send an instance that has already been seen in the current context
	 */
	action emitReceivedInstance(RequestInstancesInternal request, Instance instance) {
		if request.internal then {
			if mainContext.getId() != context.current().getId() then {
				send instance to mainContext;
			}
		} else {
			if(base.emitAny) then {
				send instance to request.channel;
			}
		}
	}
	
}


/*
 * Monitor that performs the following tasks:
 *   - routing/emitting ScenarioServiceLoaded when the service is loaded
 *   - routing/emitting ScenarioServiceUnloaded when the service is unloaded
 *   - routing/emitting a nack if a Create request is ignored
 *   - maintains latest configuration
 *   - tracks state of ended/ failed scenarios
 *   - forwards Edit, delete events to scenarios in other contexts
 *
 */
monitor ScenarioService {

	event PendingOperation {
		integer messageId;
		integer type; // 0 = delete, 1 = edit
	}

	listener throttledSenderListener;
	ScenarioServiceLibrary lib;
	RequestScenarios requestScenarios;
	boolean requestingScenarios;
	
	// MetaData relating to the interface
	dictionary<string,string> interfaceMetaData := {
		"interface.package"     :"com.apama.scenario",
		"interface.name"        :"ScenarioService",
		"interface.fileName"    :"ScenarioService.mon",
		"interface.vendor"      :"Apama",
		"interface.version"     :"5.3.0.0.247085",
		"interface.fullVersion" :"rel/5.3.0.x@247085",
		"interface.language"    :"MonitorScript"
	};
	
	// Channel names	
	string scenarioServiceChannel := "com.apama.scenario";
	integer highestInstanceId;


	// the first mThread handles scenario discovery and maps some events to internal events
	action onload {
		// print version
		log "ScenarioService interface loaded. MetaData: "+interfaceMetaData.toString() at INFO;
		
		// generate the ScenarioServiceLoaded event
		route ScenarioServiceLoaded();
		send ScenarioServiceLoaded() to scenarioServiceChannel;

		dictionary <string,string> defaultConfig:=new dictionary<string,string>;
		dictionary <string, dictionary<string,string> > configurations:=new dictionary<string, dictionary<string,string> >;
		lib.configurationManager(defaultConfig, configurations);
		RequestInstancesOnChannel requestInstancesOnChannel;
		on all RequestInstancesOnChannel():requestInstancesOnChannel {
			route RequestInstancesInternal(requestInstancesOnChannel.scenarioId, requestInstancesOnChannel.messageId, requestInstancesOnChannel.channel, false, "", false);
			on RequestInstancesDone(scenarioId=requestInstancesOnChannel.scenarioId, messageId=requestInstancesOnChannel.messageId) {
				send RequestInstancesDone(requestInstancesOnChannel.scenarioId, requestInstancesOnChannel.messageId) to requestInstancesOnChannel.channel;
			}
		}

		RequestInstancesOnChannelByUser requestInstancesOnChannelByUser;
[...]
TIME 0000000c 1444741438,1
TIME 0000000c 1444741440,1
TIME 0000000c 1444741445,1
TIME 0000000c 1444741446,1
TIME 0000000c 1444741450,1
TIME 0000000c 1444741451,1
TIME 0000000c 1444741453,1
TIME 0000000c 1444741455,1
TIME 0000000c 1444741459,1
TIME 0000000c 1444741460,1
TIME 0000000c 1444741463,1
TIME 0000000c 1444741464,1
TIME 0000000c 1444741465,1
TIME 0000000c 1444741466,1
TIME 0000000c 1444741470,1
TIME 0000000c 1444741472,1
TIME 0000000c 1444741475,1
TIME 0000000c 1444741476,1
TIME 0000000c 1444741477,1
TIME 0000000c 1444741479,1
TIME 0000000c 1444741480,1
TIME 0000000c 1444741485,1
TIME 0000000c 1444741489,1
TIME 0000000c 1444741490,1
TIME 0000000c 1444741492,1
TIME 0000000c 1444741495,1
TIME 0000000c 1444741498,1
TIME 0000000c 1444741500,1
TIME 0000000c 1444741502,1
TIME 0000000c 1444741503,1
TIME 0000000c 1444741505,1
TIME 0000000c 1444741510,1
TIME 0000000c 1444741511,1
TIME 0000000c 1444741515,1
TIME 0000000c 1444741516,1
TIME 0000000c 1444741518,1
TIME 0000000c 1444741520,1
TIME 0000000c 1444741524,1
TIME 0000000c 1444741525,1
TIME 0000000c 1444741528,1
TIME 0000000c 1444741529,1
TIME 0000000c 1444741530,1
TIME 0000000c 1444741531,1
TIME 0000000c 1444741535,1
TIME 0000000c 1444741537,1
TIME 0000000c 1444741540,1
TIME 0000000c 1444741541,1
TIME 0000000c 1444741542,1
TIME 0000000c 1444741544,1
TIME 0000000c 1444741545,1
TIME 0000000c 1444741550,1
TIME 0000000c 1444741554,1
TIME 0000000c 1444741555,1
TIME 0000000c 1444741557,1
TIME 0000000c 1444741560,1
TIME 0000000c 1444741563,1
TIME 0000000c 1444741565,1
TIME 0000000c 1444741567,1
TIME 0000000c 1444741568,1
TIME 0000000c 1444741570,1
TIME 0000000c 1444741575,1
TIME 0000000c 1444741576,1
TIME 0000000c 1444741580,1
TIME 0000000c 1444741581,1
TIME 0000000c 1444741583,1
TIME 0000000c 1444741585,1
TIME 0000000c 1444741589,1
TIME 0000000c 1444741590,1
TIME 0000000c 1444741593,1
TIME 0000000c 1444741594,1
TIME 0000000c 1444741595,1
TIME 0000000c 1444741596,1
TIME 0000000c 1444741600,1
TIME 0000000c 1444741602,1
TIME 0000000c 1444741605,1
TIME 0000000c 1444741606,1
TIME 0000000c 1444741607,1
TIME 0000000c 1444741609,1
TIME 0000000c 1444741610,1
TIME 0000000c 1444741615,1
TIME 0000000c 1444741619,1
TIME 0000000c 1444741620,1
TIME 0000000c 1444741622,1
TIME 0000000c 1444741625,1
TIME 0000000c 1444741628,1
TIME 0000000c 1444741630,1
TIME 0000000c 1444741632,1
TIME 0000000c 1444741633,1
TIME 0000000c 1444741635,1
TIME 0000000c 1444741640,1
TIME 0000000c 1444741641,1
TIME 0000000c 1444741645,1
TIME 0000000c 1444741646,1
TIME 0000000c 1444741648,1
TIME 0000000c 1444741650,1
TIME 0000000c 1444741654,1
TIME 0000000c 1444741655,1
TIME 0000000c 1444741658,1
TIME 0000000c 1444741659,1
TIME 0000000c 1444741660,1
TIME 0000000c 1444741661,1
TIME 0000000c 1444741665,1
TIME 0000000c 1444741667,1
TIME 0000000c 1444741670,1
TIME 0000000c 1444741671,1
TIME 0000000c 1444741672,1
TIME 0000000c 1444741674,1
TIME 0000000c 1444741675,1
TIME 0000000c 1444741680,1
TIME 0000000c 1444741684,1
TIME 0000000c 1444741685,1
TIME 0000000c 1444741687,1
TIME 0000000c 1444741690,1
TIME 0000000c 1444741693,1
TIME 0000000c 1444741695,1
TIME 0000000c 1444741697,1
TIME 0000000c 1444741698,1
TIME 0000000c 1444741700,1
TIME 0000000c 1444741705,1
TIME 0000000c 1444741706,1
TIME 0000000c 1444741710,1
TIME 0000000c 1444741711,1
TIME 0000000c 1444741713,1
TIME 0000000c 1444741715,1
TIME 0000000c 1444741719,1
TIME 0000000c 1444741720,1
TIME 0000000c 1444741723,1
TIME 0000000c 1444741724,1
TIME 0000000c 1444741725,1
TIME 0000000c 1444741726,1
TIME 0000000c 1444741730,1
TIME 0000000c 1444741732,1
TIME 0000000c 1444741735,1
TIME 0000000c 1444741736,1
TIME 0000000c 1444741737,1
TIME 0000000c 1444741739,1
TIME 0000000c 1444741740,1
TIME 0000000c 1444741745,1
TIME 0000000c 1444741749,1
TIME 0000000c 1444741750,1
TIME 0000000c 1444741752,1
TIME 0000000c 1444741755,1
TIME 0000000c 1444741758,1
TIME 0000000c 1444741760,1
TIME 0000000c 1444741762,1
TIME 0000000c 1444741763,1
TIME 0000000c 1444741765,1
TIME 0000000c 1444741770,1
TIME 0000000c 1444741771,1
TIME 0000000c 1444741775,1
TIME 0000000c 1444741776,1
TIME 0000000c 1444741778,1
TIME 0000000c 1444741780,1
TIME 0000000c 1444741784,1
TIME 0000000c 1444741785,1
TIME 0000000c 1444741788,1
TIME 0000000c 1444741789,1
TIME 0000000c 1444741790,1
TIME 0000000c 1444741791,1
TIME 0000000c 1444741795,1
TIME 0000000c 1444741797,1
TIME 0000000c 1444741800,1
TIME 0000000c 1444741801,1
TIME 0000000c 1444741802,1
TIME 0000000c 1444741804,1
TIME 0000000c 1444741805,1
TIME 0000000c 1444741810,1
TIME 0000000c 1444741814,1
TIME 0000000c 1444741815,1
TIME 0000000c 1444741817,1
TIME 0000000c 1444741820,1
TIME 0000000c 1444741823,1
TIME 0000000c 1444741825,1
TIME 0000000c 1444741827,1
TIME 0000000c 1444741828,1
TIME 0000000c 1444741830,1
TIME 0000000c 1444741835,1
TIME 0000000c 1444741836,1
TIME 0000000c 1444741840,1
TIME 0000000c 1444741841,1
TIME 0000000c 1444741843,1
TIME 0000000c 1444741845,1
TIME 0000000c 1444741849,1
TIME 0000000c 1444741850,1
TIME 0000000c 1444741853,1
TIME 0000000c 1444741854,1
TIME 0000000c 1444741855,1
TIME 0000000c 1444741856,1
TIME 0000000c 1444741860,1
TIME 0000000c 1444741862,1
TIME 0000000c 1444741865,1
TIME 0000000c 1444741866,1
TIME 0000000c 1444741867,1
TIME 0000000c 1444741869,1
TIME 0000000c 1444741870,1
TIME 0000000c 1444741875,1
TIME 0000000c 1444741879,1
TIME 0000000c 1444741880,1
TIME 0000000c 1444741882,1
TIME 0000000c 1444741885,1
TIME 0000000c 1444741888,1
TIME 0000000c 1444741890,1
TIME 0000000c 1444741892,1
TIME 0000000c 1444741893,1
TIME 0000000c 1444741895,1
TIME 0000000c 1444741900,1
TIME 0000000c 1444741901,1
TIME 0000000c 1444741905,1
TIME 0000000c 1444741906,1
TIME 0000000c 1444741908,1
TIME 0000000c 1444741910,1
TIME 0000000c 1444741914,1
TIME 0000000c 1444741915,1
TIME 0000000c 1444741918,1
TIME 0000000c 1444741919,1
TIME 0000000c 1444741920,1
TIME 0000000c 1444741921,1
TIME 0000000c 1444741925,1
TIME 0000000c 1444741927,1
TIME 0000000c 1444741930,1
TIME 0000000c 1444741931,1
TIME 0000000c 1444741932,1
TIME 0000000c 1444741934,1
TIME 0000000c 1444741935,1
TIME 0000000c 1444741940,1
TIME 0000000c 1444741944,1
TIME 0000000c 1444741945,1
TIME 0000000c 1444741947,1
TIME 0000000c 1444741950,1
TIME 0000000c 1444741953,1
TIME 0000000c 1444741955,1
TIME 0000000c 1444741957,1
TIME 0000000c 1444741958,1
TIME 0000000c 1444741960,1
TIME 0000000c 1444741965,1
TIME 0000000c 1444741966,1
TIME 0000000c 1444741970,1
TIME 0000000c 1444741971,1
TIME 0000000c 1444741973,1
TIME 0000000c 1444741975,1
TIME 0000000c 1444741979,1
TIME 0000000c 1444741980,1
TIME 0000000c 1444741983,1
TIME 0000000c 1444741984,1
TIME 0000000c 1444741985,1
TIME 0000000c 1444741986,1
TIME 0000000c 1444741990,1
TIME 0000000c 1444741992,1
TIME 0000000c 1444741995,1
TIME 0000000c 1444741996,1
TIME 0000000c 1444741997,1
TIME 0000000c 1444741999,1
TIME 0000000c 1444742000,1
TIME 0000000c 1444742005,1
TIME 0000000c 1444742009,1
TIME 0000000c 1444742010,1
TIME 0000000c 1444742012,1
TIME 0000000c 1444742015,1
TIME 0000000c 1444742018,1
TIME 0000000c 1444742020,1
TIME 0000000c 1444742022,1
TIME 0000000c 1444742023,1
TIME 0000000c 1444742025,1
TIME 0000000c 1444742030,1
TIME 0000000c 1444742031,1
TIME 0000000c 1444742035,1
TIME 0000000c 1444742036,1
TIME 0000000c 1444742038,1
TIME 0000000c 1444742040,1
TIME 0000000c 1444742044,1
TIME 0000000c 1444742045,1
TIME 0000000c 1444742048,1
TIME 0000000c 1444742049,1
TIME 0000000c 1444742050,1
TIME 0000000c 1444742051,1
TIME 0000000c 1444742055,1
TIME 0000000c 1444742057,1
TIME 0000000c 1444742060,1
TIME 0000000c 1444742061,1
TIME 0000000c 1444742062,1
TIME 0000000c 1444742064,1
TIME 0000000c 1444742065,1
TIME 0000000c 1444742070,1
TIME 0000000c 1444742074,1
TIME 0000000c 1444742075,1
TIME 0000000c 1444742077,1
TIME 0000000c 1444742080,1
TIME 0000000c 1444742083,1
TIME 0000000c 1444742085,1
TIME 0000000c 1444742087,1
TIME 0000000c 1444742088,1
TIME 0000000c 1444742090,1
TIME 0000000c 1444742095,1
TIME 0000000c 1444742096,1
TIME 0000000c 1444742100,1
TIME 0000000c 1444742101,1
TIME 0000000c 1444742103,1
TIME 0000000c 1444742105,1
TIME 0000000c 1444742109,1
TIME 0000000c 1444742110,1
TIME 0000000c 1444742113,1
TIME 0000000c 1444742114,1
TIME 0000000c 1444742115,1
TIME 0000000c 1444742116,1
TIME 0000000c 1444742120,1
TIME 0000000c 1444742122,1
TIME 0000000c 1444742125,1
TIME 0000000c 1444742126,1
TIME 0000000c 1444742127,1
TIME 0000000c 1444742129,1
TIME 0000000c 1444742130,1
TIME 0000000c 1444742135,1
TIME 0000000c 1444742139,1
TIME 0000000c 1444742140,1
TIME 0000000c 1444742142,1
TIME 0000000c 1444742145,1
TIME 0000000c 1444742148,1
TIME 0000000c 1444742150,1
TIME 0000000c 1444742152,1
TIME 0000000c 1444742153,1
TIME 0000000c 1444742155,1
TIME 0000000c 1444742160,1
TIME 0000000c 1444742161,1
TIME 0000000c 1444742165,1
TIME 0000000c 1444742166,1
TIME 0000000c 1444742168,1
TIME 0000000c 1444742170,1
TIME 0000000c 1444742174,1
TIME 0000000c 1444742175,1
TIME 0000000c 1444742178,1
TIME 0000000c 1444742179,1
TIME 0000000c 1444742180,1
TIME 0000000c 1444742181,1
TIME 0000000c 1444742185,1
TIME 0000000c 1444742187,1
TIME 0000000c 1444742190,1
TIME 0000000c 1444742191,1
TIME 0000000c 1444742192,1
TIME 0000000c 1444742194,1
TIME 0000000c 1444742195,1
TIME 0000000c 1444742200,1
TIME 0000000c 1444742204,1
TIME 0000000c 1444742205,1
TIME 0000000c 1444742207,1
TIME 0000000c 1444742210,1
TIME 0000000c 1444742213,1
TIME 0000000c 1444742215,1
TIME 0000000c 1444742217,1
TIME 0000000c 1444742218,1
TIME 0000000c 1444742220,1
TIME 0000000c 1444742225,1
TIME 0000000c 1444742226,1
TIME 0000000c 1444742230,1
TIME 0000000e 1444742230.1,1
TIME 0000000c 1444742231,1
TIME 0000000c 1444742233,1
TIME 0000000c 1444742235,1
TIME 0000000c 1444742239,1
TIME 0000000c 1444742240,1
TIME 0000000c 1444742243,1
TIME 0000000c 1444742244,1
TIME 0000000c 1444742245,1
TIME 0000000c 1444742246,1
TIME 0000000c 1444742250,1
TIME 0000000c 1444742252,1
TIME 0000000c 1444742255,1
TIME 0000000c 1444742256,1
TIME 0000000c 1444742257,1
TIME 0000000c 1444742259,1
TIME 0000000c 1444742260,1
TIME 0000000c 1444742265,1
TIME 0000000c 1444742269,1
TIME 0000000c 1444742270,1
TIME 0000000c 1444742272,1
TIME 0000000c 1444742275,1
TIME 0000000c 1444742278,1
TIME 0000000c 1444742280,1
TIME 0000000c 1444742282,1
TIME 0000000c 1444742283,1
TIME 0000000c 1444742285,1
TIME 0000000c 1444742290,1
TIME 0000000c 1444742291,1
TIME 0000000c 1444742295,1
TIME 0000000c 1444742296,1
TIME 0000000c 1444742298,1
TIME 0000000c 1444742300,1
TIME 0000000c 1444742304,1
TIME 0000000c 1444742305,1
TIME 0000000c 1444742308,1
TIME 0000000c 1444742309,1
TIME 0000000c 1444742310,1
TIME 0000000c 1444742311,1
TIME 0000000c 1444742315,1
TIME 0000000c 1444742317,1
TIME 0000000c 1444742320,1
TIME 0000000c 1444742321,1
TIME 0000000c 1444742322,1
TIME 0000000c 1444742324,1
TIME 0000000c 1444742325,1
TIME 0000000c 1444742330,1
TIME 0000000c 1444742334,1
TIME 0000000c 1444742335,1
TIME 0000000c 1444742337,1
TIME 0000000c 1444742340,1
TIME 0000000c 1444742343,1
TIME 0000000c 1444742345,1
TIME 0000000c 1444742347,1
TIME 0000000c 1444742348,1
TIME 0000000c 1444742350,1
TIME 0000000c 1444742355,1
TIME 0000000c 1444742356,1
TIME 0000000c 1444742360,1
TIME 0000000c 1444742361,1
TIME 0000000c 1444742363,1
TIME 0000000c 1444742365,1
TIME 0000000c 1444742369,1
TIME 0000000c 1444742370,1
TIME 0000000c 1444742373,1
TIME 0000000c 1444742374,1
TIME 0000000c 1444742375,1
TIME 0000000c 1444742376,1
TIME 0000000c 1444742380,1
TIME 0000000c 1444742382,1
TIME 0000000c 1444742385,1
TIME 0000000c 1444742386,1
TIME 0000000c 1444742387,1
TIME 0000000c 1444742389,1
TIME 0000000c 1444742390,1
TIME 0000000c 1444742395,1
TIME 0000000c 1444742399,1
TIME 0000000c 1444742400,1
TIME 0000000c 1444742402,1
TIME 0000000c 1444742405,1
TIME 0000000c 1444742408,1
TIME 0000000c 1444742410,1
TIME 0000000c 1444742412,1
TIME 0000000c 1444742413,1
TIME 0000000c 1444742415,1
TIME 0000000c 1444742420,1
TIME 0000000c 1444742421,1
TIME 0000000c 1444742425,1
TIME 0000000c 1444742426,1
TIME 0000000c 1444742428,1
TIME 0000000c 1444742430,1
TIME 0000000c 1444742434,1
TIME 0000000c 1444742435,1
TIME 0000000c 1444742438,1
TIME 0000000c 1444742439,1
TIME 0000000c 1444742440,1
TIME 0000000c 1444742441,1
TIME 0000000c 1444742445,1
TIME 0000000c 1444742447,1
TIME 0000000c 1444742450,1
TIME 0000000c 1444742451,1
TIME 0000000c 1444742452,1
TIME 0000000c 1444742454,1
TIME 0000000c 1444742455,1
TIME 0000000c 1444742460,1
TIME 0000000c 1444742464,1
TIME 0000000c 1444742465,1
TIME 0000000c 1444742467,1
TIME 0000000c 1444742470,1
TIME 0000000c 1444742473,1
TIME 0000000c 1444742475,1
TIME 0000000c 1444742477,1
TIME 0000000c 1444742478,1
TIME 0000000c 1444742480,1
TIME 0000000c 1444742485,1
TIME 0000000c 1444742486,1
TIME 0000000c 1444742490,1
TIME 0000000c 1444742491,1
TIME 0000000c 1444742493,1
TIME 0000000c 1444742495,1
TIME 0000000c 1444742499,1
TIME 0000000c 1444742500,1
TIME 0000000c 1444742503,1
TIME 0000000c 1444742504,1
TIME 0000000c 1444742505,1
TIME 0000000c 1444742506,1
TIME 0000000c 1444742510,1
TIME 0000000c 1444742512,1
TIME 0000000c 1444742515,1
TIME 0000000c 1444742516,1
TIME 0000000c 1444742517,1
TIME 0000000c 1444742519,1
TIME 0000000c 1444742520,1
TIME 0000000c 1444742525,1
TIME 0000000c 1444742529,1
TIME 0000000c 1444742530,1
TIME 0000000c 1444742532,1
TIME 0000000c 1444742535,1
TIME 0000000c 1444742538,1
TIME 0000000c 1444742540,1
TIME 0000000c 1444742542,1
TIME 0000000c 1444742543,1
TIME 0000000c 1444742545,1
TIME 0000000c 1444742550,1
TIME 0000000c 1444742551,1
TIME 0000000c 1444742555,1
TIME 0000000c 1444742556,1
TIME 0000000c 1444742558,1
TIME 0000000c 1444742560,1
TIME 0000000c 1444742564,1
TIME 0000000c 1444742565,1
TIME 0000000c 1444742568,1
TIME 0000000c 1444742569,1
TIME 0000000c 1444742570,1
TIME 0000000c 1444742571,1
TIME 0000000c 1444742575,1
TIME 0000000c 1444742577,1
TIME 0000000c 1444742580,1
TIME 0000000c 1444742581,1
TIME 0000000c 1444742582,1
TIME 0000000c 1444742584,1
TIME 0000000c 1444742585,1
TIME 0000000c 1444742590,1
TIME 0000000c 1444742594,1
TIME 0000000c 1444742595,1
TIME 0000000c 1444742597,1
TIME 0000000c 1444742600,1
TIME 0000000c 1444742603,1
TIME 0000000c 1444742605,1
TIME 0000000c 1444742607,1
TIME 0000000c 1444742608,1
TIME 0000000c 1444742610,1
TIME 0000000c 1444742615,1
TIME 0000000c 1444742616,1
TIME 0000000c 1444742620,1
TIME 0000000c 1444742621,1
TIME 0000000c 1444742623,1
TIME 0000000c 1444742625,1
TIME 0000000c 1444742629,1
TIME 0000000c 1444742630,1
TIME 0000000c 1444742633,1
TIME 0000000c 1444742634,1
TIME 0000000c 1444742635,1
TIME 0000000c 1444742636,1
TIME 0000000c 1444742640,1
TIME 0000000c 1444742642,1
TIME 0000000c 1444742645,1
TIME 0000000c 1444742646,1
TIME 0000000c 1444742647,1
TIME 0000000c 1444742649,1
TIME 0000000c 1444742650,1
TIME 0000000c 1444742655,1
TIME 0000000c 1444742659,1
TIME 0000000c 1444742660,1
TIME 0000000c 1444742662,1
TIME 0000000c 1444742665,1
TIME 0000000c 1444742668,1
TIME 0000000c 1444742670,1
TIME 0000000c 1444742672,1
TIME 0000000c 1444742673,1
TIME 0000000c 1444742675,1
TIME 0000000c 1444742680,1
TIME 0000000c 1444742681,1
TIME 0000000c 1444742685,1
TIME 0000000c 1444742686,1
TIME 0000000c 1444742688,1
TIME 0000000c 1444742690,1
TIME 0000000c 1444742694,1
TIME 0000000c 1444742695,1
TIME 0000000c 1444742698,1
TIME 0000000c 1444742699,1
TIME 0000000c 1444742700,1
TIME 0000000c 1444742701,1
TIME 0000000c 1444742705,1
TIME 0000000c 1444742707,1
TIME 0000000c 1444742710,1
TIME 0000000c 1444742711,1
TIME 0000000c 1444742712,1
TIME 0000000c 1444742714,1
TIME 0000000c 1444742715,1
TIME 0000000c 1444742720,1
TIME 0000000c 1444742724,1
TIME 0000000c 1444742725,1
TIME 0000000c 1444742727,1
TIME 0000000c 1444742730,1
TIME 0000000c 1444742733,1
TIME 0000000c 1444742735,1
TIME 0000000c 1444742737,1
TIME 0000000c 1444742738,1
TIME 0000000c 1444742740,1
TIME 0000000c 1444742745,1
TIME 0000000c 1444742746,1
TIME 0000000c 1444742750,1
TIME 0000000c 1444742751,1
TIME 0000000c 1444742753,1
TIME 0000000c 1444742755,1
TIME 0000000c 1444742759,1
TIME 0000000c 1444742760,1
TIME 0000000c 1444742763,1
TIME 0000000c 1444742764,1
TIME 0000000c 1444742765,1
TIME 0000000c 1444742766,1
TIME 0000000c 1444742770,1
TIME 0000000c 1444742772,1
TIME 0000000c 1444742775,1
TIME 0000000c 1444742776,1
TIME 0000000c 1444742777,1
TIME 0000000c 1444742779,1
TIME 0000000c 1444742780,1
TIME 0000000c 1444742785,1
TIME 0000000c 1444742789,1
TIME 0000000c 1444742790,1
TIME 0000000c 1444742792,1
TIME 0000000c 1444742795,1
TIME 0000000c 1444742798,1
TIME 0000000c 1444742800,1
TIME 0000000c 1444742802,1
TIME 0000000c 1444742803,1
TIME 0000000c 1444742805,1
TIME 0000000c 1444742810,1
TIME 0000000c 1444742811,1
TIME 0000000c 1444742815,1
TIME 0000000c 1444742816,1
TIME 0000000c 1444742818,1
TIME 0000000c 1444742820,1
TIME 0000000c 1444742824,1
TIME 0000000c 1444742825,1
TIME 0000000c 1444742828,1
TIME 0000000c 1444742829,1
TIME 0000000c 1444742830,1
TIME 0000000c 1444742831,1
TIME 0000000c 1444742835,1
TIME 0000000c 1444742837,1
TIME 0000000c 1444742840,1
TIME 0000000c 1444742841,1
TIME 0000000c 1444742842,1
TIME 0000000c 1444742844,1
TIME 0000000c 1444742845,1
TIME 0000000c 1444742850,1
TIME 0000000c 1444742854,1
TIME 0000000c 1444742855,1
TIME 0000000c 1444742857,1
TIME 0000000c 1444742860,1
TIME 0000000c 1444742863,1
TIME 0000000c 1444742865,1
TIME 0000000c 1444742867,1
TIME 0000000c 1444742868,1
TIME 0000000c 1444742870,1
TIME 0000000c 1444742875,1
TIME 0000000c 1444742876,1
TIME 0000000c 1444742880,1
TIME 0000000c 1444742881,1
TIME 0000000c 1444742883,1
TIME 0000000c 1444742885,1
TIME 0000000c 1444742889,1
TIME 0000000c 1444742890,1
TIME 0000000c 1444742893,1
TIME 0000000c 1444742894,1
TIME 0000000c 1444742895,1
TIME 0000000c 1444742896,1
TIME 0000000c 1444742900,1
TIME 0000000c 1444742902,1
TIME 0000000c 1444742905,1
TIME 0000000c 1444742906,1
TIME 0000000c 1444742907,1
TIME 0000000c 1444742909,1
TIME 0000000c 1444742910,1
TIME 0000000c 1444742915,1
TIME 0000000c 1444742919,1
TIME 0000000c 1444742920,1
TIME 0000000c 1444742922,1
TIME 0000000c 1444742925,1
TIME 0000000c 1444742928,1
TIME 0000000c 1444742930,1
TIME 0000000c 1444742932,1
TIME 0000000c 1444742933,1
TIME 0000000c 1444742935,1
TIME 0000000c 1444742940,1
TIME 0000000c 1444742941,1
TIME 0000000c 1444742945,1
TIME 0000000c 1444742946,1
TIME 0000000c 1444742948,1
TIME 0000000c 1444742950,1
TIME 0000000c 1444742954,1
TIME 0000000c 1444742955,1
TIME 0000000c 1444742958,1
TIME 0000000c 1444742959,1
TIME 0000000c 1444742960,1
TIME 0000000c 1444742961,1
TIME 0000000c 1444742965,1
TIME 0000000c 1444742967,1
TIME 0000000c 1444742970,1
TIME 0000000c 1444742971,1
TIME 0000000c 1444742972,1
TIME 0000000c 1444742974,1
TIME 0000000c 1444742975,1
TIME 0000000c 1444742980,1
TIME 0000000c 1444742984,1
TIME 0000000c 1444742985,1
TIME 0000000c 1444742987,1
TIME 0000000c 1444742990,1
TIME 0000000c 1444742993,1
TIME 0000000c 1444742995,1
TIME 0000000c 1444742997,1
TIME 0000000c 1444742998,1
TIME 0000000c 1444743000,1
TIME 0000000c 1444743005,1
TIME 0000000c 1444743006,1
TIME 0000000c 1444743010,1
TIME 0000000c 1444743011,1
TIME 0000000c 1444743013,1
TIME 0000000c 1444743015,1
TIME 0000000c 1444743019,1
TIME 0000000c 1444743020,1
TIME 0000000c 1444743023,1
TIME 0000000c 1444743024,1
TIME 0000000c 1444743025,1
TIME 0000000c 1444743026,1
TIME 0000000c 1444743030,1
TIME 0000000c 1444743032,1
TIME 0000000c 1444743035,1
TIME 0000000c 1444743036,1
TIME 0000000c 1444743037,1
TIME 0000000c 1444743039,1
TIME 0000000c 1444743040,1
TIME 0000000c 1444743045,1
TIME 0000000c 1444743049,1
TIME 0000000c 1444743050,1
TIME 0000000c 1444743052,1
TIME 0000000c 1444743055,1
TIME 0000000c 1444743058,1
TIME 0000000c 1444743060,1
TIME 0000000c 1444743062,1
TIME 0000000c 1444743063,1
TIME 0000000c 1444743065,1
TIME 0000000c 1444743070,1
TIME 0000000c 1444743071,1
TIME 0000000e 1444743073.1,1
DISC 0000003c 6795184426424404343:7002720270484310391 from 127.0.0.1:59295
DISC 00000027 6205108723613202185:3955614762 from R01
DISC 00000036 6205108723613202185:3482309487 from internal:R:control
DISC 00000027 6205108723613202185:1865318693 from S01
