VERS 00000001 4
HEAD 00000e97 <?xml version="1.0"?>
<?xml-stylesheet type="text/xsl" href="/resources/transform.xslt"?><header><componentName>correlator</componentName><version>5.3.0.0.247085</version><build>rel/5.3.0.x@247085</build><buildPlatform>amd64-win</buildPlatform><platform>Windows Server 2008 R2 (Service Pack 1)</platform><cputype>AuthenticAMD family 15 model 8 stepping 0 Six-Core AMD Opteron(tm) Processor 2427</cputype><cpus>4</cpus><javaEnabled>true</javaEnabled><replayLogMode>inputLog</replayLogMode><args><arg>C:\SoftwareAG\Apama 5.3\bin\correlator.exe</arg><arg>--logQueueSizePeriod</arg><arg>0</arg><arg>-l</arg><arg>C:\SoftwareAG\ApamaWork_5.3\license\license.txt</arg><arg>--port</arg><arg>15903</arg><arg>--loglevel</arg><arg>INFO</arg><arg>--name</arg><arg>Apama Studio Correlator for Prosoft_IW2015(Prosoft_IW2015:Default Correlator)</arg><arg>-j</arg><arg>--jmsConfig</arg><arg>C:\SoftwareAG\ApamaWork_5.3\studio_workspace\.metadata\.plugins\org.eclipse.core.resources\.projects\Prosoft_IW2015\com.apama.text\JMS_Correlator-Integrated_Adapter</arg><arg>--inputLog</arg><arg>logs/Default_Correlator_${START_TIME}_${ID}.input.log</arg></args><environment><variable>ALLUSERSPROFILE=C:\ProgramData</variable><variable>APAMA_HOME=C:\SoftwareAG\Apama 5.3</variable><variable>APAMA_WORK=C:\SoftwareAG\ApamaWork_5.3</variable><variable>APPDATA=C:\Users\Administrator\AppData\Roaming</variable><variable>CLIENTNAME=PTGHP450-YD</variable><variable>COMMONPROGRAMFILES=C:\Program Files\Common Files</variable><variable>COMMONPROGRAMFILES(X86)=C:\Program Files (x86)\Common Files</variable><variable>COMMONPROGRAMW6432=C:\Program Files\Common Files</variable><variable>COMPUTERNAME=WMSERVER11</variable><variable>COMSPEC=C:\Windows\system32\cmd.exe</variable><variable>FP_NO_HOST_CHECK=NO</variable><variable>HOMEDRIVE=C:</variable><variable>HOMEPATH=\Users\Administrator</variable><variable>LOCALAPPDATA=C:\Users\Administrator\AppData\Local</variable><variable>LOGONSERVER=\\WMSERVER11</variable><variable>NUMBER_OF_PROCESSORS=4</variable><variable>OS=Windows_NT</variable><variable>PATH=C:\SoftwareAG\Apama 5.3\third_party\jre\bin\server;C:\SoftwareAG\Apama 5.3\third_party\jre\bin;C:\SoftwareAG\Apama 5.3\third_party\jre\lib\amd64\server;C:\SoftwareAG\Apama 5.3\third_party\jre\lib\amd64;C:\SoftwareAG\Apama 5.3\bin;C:\ProgramData\Oracle\Java\javapath;C:\Windows\system32;C:\Windows;C:\Windows\System32\Wbem;C:\Windows\System32\WindowsPowerShell\v1.0\</variable><variable>PATHEXT=.COM;.EXE;.BAT;.CMD;.VBS;.VBE;.JS;.JSE;.WSF;.WSH;.MSC</variable><variable>PROCESSOR_ARCHITECTURE=AMD64</variable><variable>PROCESSOR_IDENTIFIER=AMD64 Family 16 Model 8 Stepping 0, AuthenticAMD</variable><variable>PROCESSOR_LEVEL=16</variable><variable>PROCESSOR_REVISION=0800</variable><variable>PROGRAMDATA=C:\ProgramData</variable><variable>PROGRAMFILES=C:\Program Files</variable><variable>PROGRAMFILES(X86)=C:\Program Files (x86)</variable><variable>PROGRAMW6432=C:\Program Files</variable><variable>PROMPT=$P$G</variable><variable>PSMODULEPATH=C:\Windows\system32\WindowsPowerShell\v1.0\Modules\</variable><variable>PUBLIC=C:\Users\Public</variable><variable>SESSIONNAME=RDP-Tcp#0</variable><variable>SYSTEMDRIVE=C:</variable><variable>SYSTEMROOT=C:\Windows</variable><variable>TEMP=C:\Users\ADMINI~1\AppData\Local\Temp\2</variable><variable>TMP=C:\Users\ADMINI~1\AppData\Local\Temp\2</variable><variable>USERDOMAIN=WMSERVER11</variable><variable>USERNAME=Administrator</variable><variable>USERPROFILE=C:\Users\Administrator</variable><variable>WINDIR=C:\Windows</variable><variable>WINDOWS_TRACING_FLAGS=3</variable><variable>WINDOWS_TRACING_LOGFILE=C:\BVTBin\Tests\installpackage\csilogfile.log</variable></environment><version>5.3.0.0.247085</version></header>
RAND 0000000a 1600889141
CONN 00000027 6204981785871021833:3955614762 from R01
CONN 00000036 6204981785871021833:3482309487 from internal:R:control
CONN 00000027 6204981785871021833:1865318693 from S01
CONN 0000003c 6795184426424404343:6875781408118016375 from 127.0.0.1:57369
TIME 0000000e 1444709904.3,1
MONF 00004657 package com.apama.dataview;

/*
 * $Copyright(c) 2007, 2008 Progress Software Corporation (PSC). All rights reserved.$
 * $Copyright (c) 2013-2014 Software AG, Darmstadt, Germany and/or Software AG USA Inc., Reston, VA, USA, and/or its Subsidiaries and or/its Affiliates and/or their licensors.$
 * Use, reproduction, transfer, publication or disclosure is prohibited except as specifically provided for in your License Agreement with Software AG
 */


/* Apama DataViewService API.
 *
 * This service enables MonitorScript or JMon applications to expose a simple 
 * read-only "DataView" interface. DataViews may be viewed using Apama Dashboard 
 * Studio in a similar way to Scenarios.
 *
 * Several implementations of this interface will exist. 
 * Each implementation is in a separate file - inject the one you wish to use.
 *   e.g. DataViewService_Impl_Dict.mon
 *
 * Route vs. Emit
 * The standard implementations of the DataViewService will always ROUTE 
 * any com.apama.dataview.* events, with the expectation that applications
 * using the service are co-located in the same correlator as the service.
 * If your architecture requires the client application to be in a separate 
 * correlator to the DataView service, then two "emitter" monitors are 
 * available.
 * DataViewService_ServiceEmitter.mon  would be injected into the same 
 * correlator as the DataView service after injecting the DataViewService 
 * interface but before injecting the implementation.
 * DataViewService_ApplicationEmitter.mon  would be injected into the same 
 * correlator as the client application after injecting the DataViewService 
 * interface but before injecting the client application.
 * 
 *
 * Notes:
 * 
 * 1) Every event has an initial field called msgId. Clients may choose to put 
 *    some identifier in this field when sending messages to the service. Any 
 *    event routed by the service in response will contain the same identifier.
 *
 * 2) Most events contain a field called "dvName". This string 
 *    uniquely identifies a DataView inside the correlator. 
 *
 * 3) Every event has a final field called extraParams that is a string:string
 *    dictionary. Some implementations may choose to use this field. It provides
 *    a way of future-proofing the interface to a certain extent.
 *
 * $Revision: 221069 $
 */





/* ==========================================================================
 * ==========================================================================
 * Events to send to the DataViewService to manage the DataView schemas
 * ==========================================================================
 * ========================================================================== */


/** Define a new DataView type.
 *
 * Expect either a DataViewDefinition or a DataViewException in response.
 *
 * See also: DataViewDefinition() DataViewException(), DataViewAddItem()
 *
 * Direction: From the customer Monitor to the DataViewService.
 */
event DataViewAddDefinition {
	/** Optional application-defined message identifier used to correlate 
		requests and responses. */
	string msgId;
	/** The name that uniquely identifies this DataView (e.g. DataView_XXX) */
	string dvName;
	/** The display name of the DataView (e.g. "XXX manager") */
	string dvDisplayName;
	/** Optional field containing a description of this DataView 
		(e.g. "This DataView exposes XXX objects"). */
	string dvDescription;
	/** Specifies the names of each field exposed by the DataView. */
	sequence<string> fieldNames;
	/** Specifies the types corresponding to each field in the fieldNames sequence. 
		Supported types are: string, float, integer, boolean. */
	sequence<string> fieldTypes;
	/** Optional set of field names whose values in an Item are to be combined 
		to make a unique key that can be used instead of the dvItemId field of 
		DataViewDeleteItem, DataViewUpdateItem, and DataViewUpdateDelta events.
 	*/
	sequence<string> keyFields;
	/** Optional dictionary of parameters for future extensibility; 
		DataView implementation-specific parameters may also be stored here. */
	dictionary<string, string> extraParams;
}


/* Remove an existing DataView type.
 *
 * Direction: From the customer Monitor to the DataViewService.
 *
 * Response: DataViewUnloaded()
 */
event DataViewDeleteDefinition {
	string msgId;                            // [OPTIONAL] A messageId that applications may choose to use to identify "responses".
	string dvName;                           // The DataView Name (e.g. conventionally DataView_XXX)
	dictionary<string, string> extraParams;  // [OPTIONAL] Some implementations may choose to make use of this field.
}


/* Request helper dictionary to facilitate sequence position lookup
 *    by field name.
 *
 * See also: DataViewFieldLookup()
 *
 * Direction: From the customer Monitor to the DataViewService.
 *
 * Response: DataViewFieldLookup()
 */
event DataViewGetFieldLookup {
	string msgId;                            // [OPTIONAL] A messageId that applications may choose to use to identify "responses".
	string dvName;                           // The DataView Name (e.g. conventionally DataView_XXX)
	dictionary<string, string> extraParams;  // [OPTIONAL] Some implementations may choose to make use of this field.
}



/* ==========================================================================
 * ==========================================================================
 * Events to send to the DataViewService to manage individual DataView Items
 * ==========================================================================
 * ========================================================================== */


/* Request that a new Item is added to a specific DataView.
*
* See also: DataViewItem()
*
* Direction: From the customer Monitor to the DataViewService.
*/
event DataViewAddItem {
	string msgId;                            // [OPTIONAL] A messageId that applications may choose to use to identify "responses".
	string dvName;                           // the unique name of the DataView
	string owner;                            // the owner (user) of the Item.
	float timeStamp;                         // the timestamp of the initial update (seconds since epoch). If the value given is -1.0 then the service will populate it using correlator currentTime.
	sequence<string> fieldValues;            // complete sequence of field values in string form
	dictionary<string, string> extraParams;  // [OPTIONAL] Some implementations may choose to make use of this field.
}


/* Request that a new Item is added to a specific DataView if it does not already exist, 
* or is updated when it does exist. This will ONLY work when keyFields are used.
* Attempts to change the owner of an existing item will be rejected with a DataViewItemException.
*
* See also: DataViewItem()
*
* Direction: From the customer Monitor to the DataViewService.
*/
event DataViewAddOrUpdateItem {
	string msgId;                            // [OPTIONAL] A messageId that applications may choose to use to identify "responses".
	string dvName;                           // the unique name of the DataView
	string owner;                            // the owner (user) of the Item - ONLY used for new items.
	float timeStamp;                         // the timestamp of the initial update (seconds since epoch). If the value given is -1.0 then the service will populate it using correlator currentTime.
	sequence<string> fieldValues;            // complete sequence of field values in string form
	dictionary<string, string> extraParams;  // [OPTIONAL] Some implementations may choose to make use of this field.
}


/* Contains updated DataView Item fields.
 * Use this to update the fields.
 *
 * Direction: From the customer Monitor to the DataViewService.
 *
 */
event DataViewUpdateItem { 
	string msgId;                            // [OPTIONAL] A messageId that applications may choose to use to identify "responses".
	string dvName;                           // the unique name of the DataView
	integer dvItemId;                        // the ID of the Item within the DataView (may be -1 if using keyFields instead)
	float timeStamp;                         // the timestamp of the update (seconds since epoch). If the value given is -1.0 then the service will populate it using correlator currentTime.
	sequence<string> fieldValues;            // sequence of field values in string form
	dictionary<string, string> extraParams;  // [OPTIONAL] Some implementations may choose to make use of this field.
}


/* Contains updated DataView Item fields.
 * Use this to update the fields.
 *
 * Direction: From the customer Monitor to the DataViewService.
 *
 */
event DataViewUpdateItemDelta { 
	string msgId;                            // [OPTIONAL] A messageId that applications may choose to use to identify "responses".
	string dvName;                           // the unique name of the DataView
	integer dvItemId;                        // the ID of the Item within the DataView (may be -1 if using keyFields instead)
	float timeStamp;                         // the timestamp of the update (seconds since epoch). If the value given is -1.0 then the service will populate it using correlator currentTime.
	dictionary<integer,string> fieldValues;  // values to be updated. Dictionary Key is index into fields sequence, Value is new field value in sequence. 
	                                         // If not using dvItemId, then the dictionary MUST contain the key values (even though they have not changed)
	dictionary<string, string> extraParams;  // [OPTIONAL] Some implementations may choose to make use of this field.
}


/* Request that a specific Item within a specific DataView is deleted.
 *
 * See also: DataViewItemDeleted()
 *
 * Direction: From the customer Monitor to the DataViewService.
 */
event DataViewDeleteItem {
	string msgId;                            // [OPTIONAL] A messageId that applications may choose to use to identify "responses".
	string dvName;                           // the unique name of the DataView
	integer dvItemId;                        // the ID of the Item within the DataView (may be -1 if using keyFields instead)
	sequence<string> keyFields;              // [OPTIONAL] sequence of ONLY key field values (if not using the dvItemId)
	dictionary<string, string> extraParams;  // [OPTIONAL] Some implementations may choose to make use of this field.
}


/* Request that all Items within a specific DataView are deleted.
 *
 * See also: DataViewAllItemsDeleted()
 *
 * Direction: From the customer Monitor to the DataViewService.
 */
event DataViewDeleteAllItems {
	string msgId;                            // [OPTIONAL] A messageId that applications may choose to use to identify "responses".
	string dvName;                           // the unique name of the DataView
	dictionary<string, string> extraParams;  // [OPTIONAL] Some implementations may choose to make use of this field.
}


/* ==========================================================================
 * ==========================================================================
 * Events to that are callbacks from DatavViewService
 * ==========================================================================
 * ========================================================================== */


/** Confirmation that a specific DataView definition has been added.
 *
 * For information on the meaning of each field, see DataViewAddDefinition()
 *
 * Direction: From the DataViewService to the customer Monitor.
 */
event DataViewDefinition {
	string msgId;
	string dvName;
	string dvDisplayName;
	string dvDescription;
	sequence<string> fieldNames;
	sequence<string> fieldTypes;
	sequence<string> keyFields;
	dictionary<string, string> extraParams;
}


/* Indicates that a specific DataView definition is being unloaded.
 *
 * Direction: From the DataViewService to the customer Monitor.
 */
event DataViewDefinitionDeleted { 
	string msgId;                            // [OPTIONAL] A messageId that applications may choose to use to identify "responses".
	string dvName;                           // the unique name of the DataView
	dictionary<string, string> extraParams;  // [OPTIONAL] Some implementations may choose to make use of this field.
}


/* Notifies all interested clients that a new Item has been added to a specific 
 * DataView. 
 * The event provides the unique itemID, owner (user), and initial values for 
 * all fields.
 *
 * See also: DataViewAddItem()
 *
 * Direction: From the DataViewService to the customer Monitor.
 *
 */
event DataViewItem { 
	string msgId;                            // [OPTIONAL] A messageId that applications may choose to use to identify "responses".
	string dvName;                           // the unique name of the DataView
	integer dvItemId;                        // the ID of the Item within the DataView
	string owner;                            // the owner (user) of the Item.
	sequence<string> fieldValues;            // sequence of field values in string form
	dictionary<string, string> extraParams;  // [OPTIONAL] Some implementations may choose to make use of this field.
}


/* Notifies all interested clients that a specific Item within a specific 
 * DataView has been deleted.
 *
 * See also: DataViewDeleteItem()
 *
 * Direction: From the DataViewService to the customer Monitor.
 *
 */
event DataViewItemDeleted {
	string msgId;                            // [OPTIONAL] A messageId that applications may choose to use to identify "responses".
	string dvName;                           // the unique name of the DataView
	integer dvItemId;                        // the ID of the Item within the DataView
	sequence<string> keyFields;              // sequence of ONLY key field values (for those not using the dvItemId)
	dictionary<string, string> extraParams;  // [OPTIONAL] Some implementations may choose to make use of this field.
}


/* Notifies all interested clients that all Items within a specific 
 * DataView have been deleted.
 *
 * See also: DataViewDeleteAllItems()
 *
 * Direction: From the DataViewService to the customer Monitor.
 *
 */
event DataViewAllItemsDeleted {
	string msgId;                            // [OPTIONAL] A messageId that applications may choose to use to identify "responses".
	string dvName;                           // the unique name of the DataView
	dictionary<string, string> extraParams;  // [OPTIONAL] Some implementations may choose to make use of this field.
}


/* The helper dictionary to facilitate sequence position lookup
 *    by field name.
 *
 * See also: DataViewGetFieldLookup()
 *
 * Direction: From the DataViewService to the customer Monitor.
 */
event DataViewFieldLookup {
	string msgId;                            // [OPTIONAL] A messageId that applications may choose to use to identify "responses".
	string dvName;                           // The DataView Name (e.g. conventionally DataView_XXX)
	dictionary <string, integer> fields;     // A map of fieldName:fieldIndex
	dictionary<string, string> extraParams;  // [OPTIONAL] Some implementations may choose to make use of this field.
}


/* Indicates that an exception occurred within the DataViewService, and indicates 
* the name of the specific DataView.
*
* Direction: From the DataViewService to the customer Monitor.
*/
event DataViewException {
	string msgId;                            // [OPTIONAL] A messageId that applications may choose to use to identify "responses".
	string dvName;                           // the unique name of the DataView
	wildcard string message;                 // The message in the exception. This is designed to be human readable, and may change between implementations/versions, hence the wildcard.
	dictionary<string, string> extraParams;  // [OPTIONAL] Some implementations may choose to make use of this field.
}

/* Indicates that an exception occurred within the DataViewService, and indicates 
* the name of the specific DataView, and the Id of the specific Item.
*
* Direction: From the DataViewService to the customer Monitor.
*/
event DataViewItemException {
	string msgId;                            // [OPTIONAL] A messageId that applications may choose to use to identify "responses".
	string dvName;                           // the unique name of the DataView
	integer dvItemId;                        // the ID of the Item within the DataView
	wildcard string message;                 // The message in the exception. This is designed to be human readable, and may change between implementations/versions, hence the wildcard.
	dictionary<string, string> extraParams;  // [OPTIONAL] Some implementations may choose to make use of this field.
}


/* Indicates that the DataView service is being unloaded.
 *
 * Direction: From the DataViewService to the customer Monitor.
 */
event DataViewServiceUnloaded { 
	dictionary<string, string> extraParams;  // [OPTIONAL] Some implementations may choose to make use of this field.
}


monitor DataViewService_Interface {
	// MetaData relating to the interface
	dictionary<string,string> interfaceMetaData := {
		"interface.package"     :"com.apama.dataview",
		"interface.name"        :"DataViewService_Interface",
		"interface.fileName"    :"DataViewService_Interface.mon",
		"interface.vendor"      :"Apama",
		"interface.version"     :"5.3.0.0.247085",
		"interface.fullVersion" :"rel/5.3.0.x@247085",
		"interface.language"    :"MonitorScript"
	};

	action onload {
		log "DataViewService interface loaded. MetaData: "+interfaceMetaData.toString() at INFO;
	}
}

 0000003e C:\SoftwareAG\Apama 5.3\monitors\DataViewService_Interface.mon
CONN 0000003c 6795184426424404343:6875781622866446711 from 127.0.0.1:57370
CONN 0000003c 6795184426424404343:6875782335831345527 from 127.0.0.1:57377
TIME 0000000e 1444709904.4,1
MONF 00012519 package com.apama.scenario;

/**
 * This file contains the shared event definitions that are generic across 
 * all Scenarios.  
 *
 * WARNING: 
 *    The event definitions contained in this file form an internal protocol 
 *    and may change between software releases.
 *
 * Notes:
 * 1) The Event definitions contained in this file MUST be considered
 *    as an internal implementation of the communications protocol
 *    between the Apama client API and an Apama server.  As such
 *    these event definitions MUST NOT be considered "stable" and are 
 *    subject to change in any future software release.
 *
 *    The ONLY supported public APIs to the Scenario Service are the 
 *    Java client API (in the com.apama.services.scenario package) and the 
 *    .NET client API (in the Apama.Services.Scenario namespace).  
 *    Customers should not attempt to interface at the event or 
 *    EPL layer. Some events have been changed over time (as 
 *    noted here).
 *
 * 2) Most events now contain an initial field called "scenarioId". This string 
 *    uniquely identifies a scenario inside the correlator, and is used as 
 *    the package name, in several events, and for making up a part of the 
 *    data and control channel names.
 *
 * 3) Events that are intended to be used in a request-response pattern contain
 *    a "messageId" field.  The value of this field must be copied from the 
 *    request event into the response event. The mechanism allows clients to 
 *    match up request-response pairs.
 *
 *
 * $Copyright(c) 2005-2011 Progress Software Corporation (PSC). All rights reserved.$
 * $Copyright (c) 2013-2014 Software AG, Darmstadt, Germany and/or Software AG USA Inc., Reston, VA, USA, and/or its Subsidiaries and or/its Affiliates and/or their licensors.$
 * Use, reproduction, transfer, publication or disclosure is prohibited except as specifically provided for in your License Agreement with Software AG
 *
 * $Revision: 242755 $
 */

/**
 * Request that a new instance of a specific scenario is created.
 *
 * See also: Created(), Acknowledge()
 *
 * Direction: From the client to the correlator.
 *
 * Response: Acknowledge()
 */
event Create {
	string scenarioId;                   // the unique name of the scenario
	integer messageId;                   // the unique message ID (for request-response matching)
	string owner;                        // the owner (user) of the instance.
	sequence<string> inputFieldValues;   // sequence of INPUT field values in string form
}

/**
 * Notifies all interested clients that a new instance of a specific 
 * scenario has been created. 
 * The event provides the owner (user), initial state, and initial values for 
 * all input fields and all output fields.
 *
 * See also: Create()
 *
 * Direction: From the correlator to the client.
 *
 * Channel: <scenarioId>.Data and <scenarioId>.Data.Raw
 */
event Created { 
	string scenarioId;                   // the unique name of the scenario
	integer messageId;                   // the unique message ID (for request-response matching)
	integer scenarioInstanceId;          // the ID of the scenario instance
	string owner;                        // the owner (user) of the instance.
	string state;                        // the initial state of the instance.
	sequence<string> inputFieldValues;   // sequence of INPUT field values in string form
	sequence<string> outputFieldValues;  // sequence of OUTPUT field values in string form
}


/**
 * Notifies the interested clients of child scenarios created from
 * a parent scenario.
 *
 * Direction: Internal in the correlator
 *
 * Channel: <none>
 */
event ParentChildRelationship {
	string parentScenarioId;
	integer parentScenarioInstanceId;
	string childScenarioId;
	integer childScenarioInstanceId;
}


/**
 * Request that a specific instance of a specific scenario is edited (the input 
 * field values are changed).
 *
 * See also: Edited(), Acknowledge()
 *
 * Direction: From the client to the correlator.
 *
 * Response: Acknowledge()
 */
event Edit { 
	string scenarioId;                   // the unique name of the scenario
	integer messageId;                   // the unique message ID (for request-response matching)
	integer scenarioInstanceId;          // the ID of the scenario instance
	sequence<string> inputFieldValues;   // sequence of INPUT field values in string form
}


/**
 * Notifies all interested clients that a specific instance of a specific 
 * scenario has been edited (the input field values have changed).
 *
 * See also: Edit()
 *
 * Direction: From the correlator to the client.
 *
 * Channel: <scenarioId>.Data and <scenarioId>.Data.Raw
 */
event Edited { 
	string scenarioId;                   // the unique name of the scenario
	integer messageId;                   // the unique message ID (for request-response matching)
	integer scenarioInstanceId;          // the ID of the scenario instance
	sequence<string> inputFieldValues;   // sequence of INPUT field values in string form
	sequence<string> outputFieldValues;  // sequence of OUTPUT field values in string form
}


/**
 * Request that a specific instance of a specific scenario is deleted.
 *
 * See also: Deleted(), Acknowledge()
 *
 * Direction: From the client to the correlator.
 *
 * Response: Acknowledge()
 */
event Delete {
	string scenarioId;                   // the unique name of the scenario
	integer messageId;                   // the unique message ID (for request-response matching)
	integer scenarioInstanceId;          // the ID of the scenario instance
}


/**
 * Notifies all interested clients that a specific instance of a specific 
 * scenario has been deleted.
 *
 * See also: Delete()
 *
 * Direction: From the correlator to the client.
 *
 * Channel: <scenarioId>.Data and <scenarioId>.Data.Raw
 */
event Deleted {
	string scenarioId;                   // the unique name of the scenario
	integer messageId;                   // the unique message ID (for request-response matching)
	integer scenarioInstanceId;          // the ID of the scenario instance
}


/**
 * Indicates that a specific instance of a specific scenario has died.
 * This is sent as a result of a scenario instance use of MonitorScript ondie.
 * This occurs for any of deleting a running scenario, a scenario failing, or 
 * entering the end state.
 *
 * Direction: From the correlator to the client.
 *
 * Channel: <scenarioId>.Data and <scenarioId>.Data.Raw
 */
event InstanceDied {
	string scenarioId;                   // the unique name of the scenario
	integer scenarioInstanceId;          // the ID of the scenario instance
}


/**
 * Contains updated scenario instance output fields.
 * Note that this is the ONLY event type that is sendted on the 
 * "<scenarioId>.Data" channel.
 *
 * Direction: From the correlator to the client.
 *
 * Channel: <scenarioId>.Data and <scenarioId>.Data.Raw
 */
event Update { 
	string scenarioId;                   // the unique name of the scenario
	integer scenarioInstanceId;          // the ID of the scenario instance
	float timeStamp;                     // the time of the update (seconds since epoch)
	sequence<string> outputFieldValues;  // sequence of OUTPUT field values in string form
}


/**
 * A general Acknowledgement event that is the "response" to various "request"
 * events such as Create, Edit, Delete.
 *
 * Direction: From the correlator to the client.
 *
 * Channel: <scenarioId>.Control
 */
event Acknowledge { 
	string scenarioId;                   // the unique name of the scenario
	integer messageId;                   // the unique message ID (for request-response matching)
	integer scenarioInstanceId;          // the id of the scenario instance
	boolean success;                     // boolean indication of success
	sequence<string> outputFieldValues;  // sequence of the OUTPUT field values in string form, 
	                                     //   or an empty sequence if success = false
}


/**
 * Indicates that a specific instance of a specific scenario has changed 
 * state, where valid states include "ENDED", "FAILED", "RUNNING".
 *
 * Direction: From the correlator to the client.
 *
 * Channel: <scenarioId>.Data and <scenarioId>.Data.Raw
 */
event StateChange { 
	string scenarioId;                   // the unique name of the scenario.
	integer scenarioInstanceId;          // the ID of the scenario instance.
	string state;                        // the new state.
}


/**
 * Request that each scenario loaded in the correlator send its meta
 * information out on the supplied channel. When all scenarios have
 * sent out this information, a final RequestScenariosDone event will
 * be sent on the same channel.
 *
 * As soon as this event is received, a RequestScenariosAck will be
 * sent on the same channel so client can stop resending the RequestScenarios
 * event.
 *
 * See also: Scenario, RequestScenariosDone, RequestScenariosAck
 *
 * Direction: From the client to the correlator.
 *
 * Response: Scenario() from each loaded scenario.
 */
event RequestScenarios { 
	// renamed for clarity - was Request
	string channel;                      // Name of the private response channel.
}


/**
 * This is a simple marker event that is sent by the correlator to indicate 
 * that it has finished sending all of the Scenario events in response
 * to a RequestScenarios event.
 * 
 * See also: RequestScenarios, Scenario.
 *
 * Direction: From the correlator to the client.
 *
 * Channel: The private channel that was specified in the RequestScenarios event.
 */
event RequestScenariosDone {}

/* This is a simple ack event that is sent by the correlator to indicate the
 * RequestScenarios event is received and the request is being processed
 *
 * See also: RequestScenarios
 *
 * Direction: From the correlator to the client.
 *
 * Channel: The private channel that was specified in the RequestScenarios event.
 */
event RequestScenariosAck {}

/**
 * Request that each instance of the specified scenario send an Instance event 
 * out on the supplied channel. When all instances for the scenario have been 
 * sent out, a final RequestInstancesDone event will be sent on the same channel.
 *
 * See also: Instance, RequestInstancesDone
 *
 * Direction: From the client to the correlator.
 *
 * Response: Instance() from each scenario instance.
 */
event RequestInstancesOnChannel { 
	string scenarioId;                   // Identifier of the scenario for which to return instances. 
	integer messageId;                   // the unique message ID (for request-response matching)
	string channel;                      // Name of the private response channel.
}

/**
 * Request that each instance for the specified user of the specified scenario
 * send an Instance event out on the supplied channel. When all instances for
 * the scenario have been sent out, a final RequestInstancesDone event will be 
 * sent on the same channel.
 *
 * See also: Instance, RequestInstancesDone
 *
 * Direction: From the client to the correlator.
 *
 * Response: Instance() from each scenario instance.
 */
event RequestInstancesOnChannelByUser { 
	string scenarioId;                   // Identifier of the scenario for which to return instances. 
	integer messageId;                   // the unique message ID (for request-response matching)
	string channel;                      // Name of the private response channel.
	string owner;                        // the username to filter by
}


/**
 * This is a simple marker event that is sent by the correlator to indicate 
 * that it has finished sending all of the Instance events in response
 * to a RequestInstancesInternal event.
 * 
 * See also: RequestInstancesInternal, Scenario.
 *
 * Direction: From the correlator to the client.
 *
 * Channel: A unique private channel as specified by the client in a 
 *          RequestScenariosOnChannel event.
 *
 *          Note that previously it would have been on <scenarioId>.Data and 
 *          <scenarioId>.Data.Raw, but that behaviour is now deprecated.
 */
event RequestInstancesDone {
	string scenarioId;                   // Identifier of the scenario for instances were returned. 	
	integer messageId;                   // the unique message ID (for request-response matching)
}


/**
 * Describes the meta-information about a scenario that is loaded in the 
 * correlator.
 * 
 * See also: RequestScenarios, RequestScenariosDone, ScenarioUnloaded
 * 
 * Direction: From correlator to client.
 *
 * Channel:   1) com.apama.scenario to broadcast when loaded.
 *            2) A unique private channel as specified by the client in a 
 *               RequestScenarios event.
 *
 * This event has gained the executionMode field in Apama 4.2
 */
event Scenario {
	string scenarioId;                   // unique identifier for Scenario, e.g. Scenario_statistical$002darbitrage
	string displayName;                  // user-specified name for Scenario, e.g. statistical-arbitrage
	string description;                  // description of the Scenario
	sequence<string> inputNames;         // input parameter names
	sequence<string> inputTypes;         // input parameter types
	sequence<string> inputConstraints;   // input parameter contraints
	sequence<string> inputDefaults;      // input parameter default values
	sequence<string> outputNames;        // output parameter names
	sequence<string> outputTypes;        // output parameter types
	integer executionMode;               // 0 = serial, 1 = parallel, 2 = parallel child. New as of 4.2
	dictionary<string, string> extraParams; // Additional parameters
}



/**
 * Indicates that a specific Scenario definition is being unloaded.
 *
 * Direction: From the correlator to the client.
 *
 * Channel: <scenarioId>.Control
 */
event ScenarioUnloaded { 
	string scenarioId;                   // the unique name of the scenario
}

/**
 * Provides a dump of the current state of a scenario instance.
 * The event definition is identical to the Created event, and includes the 
 * owner (user), initial state, and current values for all input fields and 
 * all output fields.
 *
 * Instance events are sent in response to RequestInstancesOnChannel event 
 * and the deprecated RequestInstancesInternal event; 
 *
 * See also: RequestInstancesOnChannel, RequestInstancesDone, RequestInstancesInternal
 *
 * Direction: From the correlator to the client.
 *
 * Channel: A unique private channel as specified by the client in a 
 *          RequestScenariosOnChannel event.
 *
 *          Note that previously it would have been on <scenarioId>.Data and 
 *          <scenarioId>.Data.Raw, but that behaviour is now deprecated.
 */
event Instance {
	string scenarioId;                   // the unique name of the scenario. 
	integer messageId;                   // the unique message ID (for request-response matching)
	integer scenarioInstanceId;          // the ID of the scenario instance. 
	string owner;                        // the owner (user) of the instance.
	string state;                        // the initial state of the instance.
	sequence<string> inputFieldValues;   // sequence of INPUT field values in string form. 
	sequence<string> outputFieldValues;  // sequence of OUTPUT field values in string form. 
}


/**
 * Indicates this shared MonitorScript has been loaded.
 *
 * Direction: From the correlator to the client.
 *
 * Channel: com.apama.scenario to broadcast when loaded.
 */
event ScenarioServiceLoaded { 
}

/**
 * Indicates this shared MonitorScript is being unloaded.
 *
 * Direction: From the correlator to the client.
 *
 * Channel: com.apama.scenario to broadcast when unloaded.
 */
event ScenarioServiceUnloaded { 
}


/**
 * Set the period over which updates will be queued and coalesced before being
 * sent out on the data channel. Defaults to zero, which means they won't be
 * queued. If it is negative then we won't send any updates on the data channel.
 * This event is deprecated and the ConfigureUpdates event should be used 
 * instead (see below)
 */
event SetThrottlingPeriod {
	float period;   // The period in seconds. Default zero.
}


/**
 * Configures how updates are sent from scenarios.
 * Each scenario is controlled by two configurations - a global default,
 * and an optional per scenario configuration.  The per scenario
 * configuration takes precedence over the global default.
 * The configuration is made up of a number of entries in 
 * the configuration dictionary. The ConfigureUpdate event 
 * is merged into any previous configuration.
 *
 * Global configuration can be modified by specifying an empty string 
 * for scenarioId, and empty values remove values.
 */
event ConfigureUpdates {
	/** Specifies the scenario the configuratio will apply to, or use 
		empty string "" to specify a global default. 
	*/
	string scenarioId;
	/** 
	 * A set of the configurations modified by this event
	 * the key and meaning is one of:
	 * sendThrottled - boolean - whether to send Updates to the 
	 *                           Throttled (.Data) channel (default=true)
	 * throttlePeriod - float - period with which to send Updates. 
	 *                          0.0 means updates are not throttled - 
	 *                          every update is sent on the Throttled 
	 *                          channel. (default=0.0)
	 * sendRaw - boolean - whether to send Updates on the Raw channel 
	 *                     (.Raw) (default=true)
 	 * sendThrottledUser - boolean - whether to send Updates to the 
	 *                     throttled filtered (.Data:username) channel
	 *                     (default=false)
 	 * sendRawUser - boolean - whether to send Updates to the Raw 
	 *                     channel (.Raw:username) (default=false)
	 * routeUpdate - boolean - whether to route Update (and Edited, Deleted) events.
	 * An empty value removes that entry from the configuration
	 */
	dictionary<string,string> configuration;
}

/**
 * Immediately flushes to receivers any scenario Update events that were 
 * waiting for the next throttling period before being sent. 
 * 
 */
event SendQueuedUpdatesNow {
	
}

/* ==========================================================================
 * The following describes INTERNAL event definitions that should not be sent 
 * into the correlator, nor relied upon.
 * ==========================================================================
 */

/**
 * Request that each instance of the specified scenario send an Instance event 
 * out on the scenario Data or Raw channel. When all instances for the scenario
 * have been sent out, a final RequestInstancesDone event will be sent on the 
 * same channel.
 *
 * See also: Instance, RequestInstancesDone, RequestInstancesOnChannel, RequestInstancesOnChannelByUser
 *
 * Direction: From the ScenarioService to the scenario
 *
 * Response: Instance() from each scenario instance, RequestInstancesDone when finished.
 */
event RequestInstancesInternal { 
	string scenarioId;                   // Identifier of the scenario for which to return instances. 
	integer messageId;                   // the unique message ID (for request-response matching)
	string channel;                      // Name of the private response channel.
	boolean internal;                    // if true, events should be routed/ send-to'd the main context
	string owner;                        // owner filter (optional)
	boolean ownerFilter;                 // whether to filter by owner
}

/**
 * A scenario has finished running, but is still discoverable.
 * (i.e. entered end state or failed - but not deleted).
 * Note that this event contains the state as of the last
 * Update/ Edited event - i.e. if an action modified an output variable 
 * and then caused the scenario to fail, the prior modification
 * would not be reflected in this event.
 *
 * This event contains sufficient information for discovery of the
 * scenario instance later
 * 
 * Direction: from scenarios to the ScenarioService sub-monitor (spawned per scenario)
 */
event ScenarioFinished {
	string scenarioId;                   // Identifier of the scenario which has failed. 
	integer scenarioInstanceId;          // the ID of the scenario instance. 
	string owner;                        // the owner (user) of the instance.
	string state;                        // the initial state of the instance.
	sequence<string> inputFieldValues;   // sequence of INPUT field values in string form. 
	sequence<string> outputFieldValues;  // sequence of OUTPUT field values in string form. 
}
/**
 * Only used internally to tell all the scenarios to start routing their
 * meta data (Scenario). It is followed by a sweeper FinishedScenarioRecovery
 * event which indicates that all the scenarios have reported in.
 */
event StartScenarioRecovery {}

/**
 * Sweeper event to indicate that scenario recovery is done. Only used internally.
 */
event FinishedScenarioRecovery {}

/**
 * Trigger discovery of a parallel scenario. Sent from a sub-monitor of
 * ScenarioService to RequestInstancesHandler to create a new sub-monitor.
 */
event RequestInstancesParallel {
	RequestInstancesInternal request;          // the original request event
	dictionary<integer, context> instances;    // all scenario instances and their running context
	integer highestInstanceId;                 // the highest scenarioInstanceId listed in instances (or more accurately, the highest when discovery started)
}

/**
 * Discovery protocol of a parallel scenario. Sent from a scenario instance
 * to RequestInstancesHandler.
 */
event RequestInstancesParallelDone {
	string scenarioId;                   // the unique name of the scenario
	integer messageId;                   // the unique message ID (for request-response matching)
	integer scenarioInstanceId;          // the ID of the scenario instance
}

/**
 * Notification of a new scenario instance
 */
event ParallelStarting {
	string scenarioId;                   // the unique name of the scenario
	integer scenarioInstanceId;          // the ID of the scenario instance
	string owner;                        // the owner of the scenario instance
	context runningCtx;                  // the context the scenario is running in
}

/**
 * Get the current configuration for a given scenario and the default configuration
 */
event GetConfiguration {
	string scenarioId;                   // the unique name of the scenario
}

/**
 * The current configuration for a given scenario and the default configuration
 * @see ConfigureUpdates
 */
event Configuration {
	string scenarioId;                        // the unique name of the scenario
	dictionary<string, string> defaults;      // the global defaults
	dictionary<string, string> configuration; // the scenario configuration (takes precedence)
}


/**
 * An operation has completed. Sent from parallel scenarios to the main context.
 */
event OperationCompleted {
	string scenarioId;
	integer scenarioInstanceId;
	integer messageId;
}

/**
 * Notification that a scenario has loaded a ConfigureUpdates event
 */
event ScenarioProcessedUpdates {
	string scenarioId;
}

/**
 * Request all configuration
 */
event GetAllConfiguration {
	integer requestId;
}

/** 
 * Response all configuration
 */
event AllConfiguration {
	integer requestId;
	dictionary<string, string> defaultConfig;
	dictionary<string, dictionary<string, string> > configurations;
}


/**
 * Library of utiltiy actions
 */
event ScenarioServiceLibrary {

	/**
	 * Get the control channel for a scenario Id. This channel
	 * is always enabled (uses an event set scenario ID)
	 */
	action getControlChannel(string scenarioId) returns string
	{
		return scenarioId+".Control";
	}
	/**
	 * Get the data channel for a scenario ID. This channel 
	 * is enabled by the sendThrottled configuration key and 
	 * the throttlePeriod key (Update events may be throttled)
	 */
	action getDataChannel(string scenarioId) returns string
	{
		return scenarioId+".Data";
	}
	/**
	 * Get the raw channel for a scenario ID. This channel
	 * is enabled by the sendRaw configuration key.
	 */
	action getRawChannel(string scenarioId) returns string
	{
		return scenarioId+".Data.Raw";
	}
	/**
	 * Get the data channel for a scenario Id. This channel 
	 * is enabled by the sendThrottledUser configuration key and 
	 * the throttlePeriod key (Update events may be throttled)
	 */
	action getDataUserChannel(string channel, string owner) returns string
	{
		return channel+":"+owner;
	}
	/**
	 * Get the raw channel for a scenario Id. This channel
	 * is enabled by the sendRawUser configuration key.
	 */
	action getRawUserChannel(string channel, string owner) returns string
	{
		return channel+":"+owner;
	}
	
	/**
	 * Merge configuration. Any entries in updates overwrite entries in configuration.
	 * An empty string value removes the value.
	 * @see ConfigureUpdates
	 */
	action mergeConfiguration(dictionary<string, string> updates, dictionary<string, string> configuration) {
		string k;
		for k in updates.keys() {
			configuration[k]:=updates[k];
			if updates[k]="" then {
				configuration.remove(k);
			}
		}
	}
	
	// implementation note: the defaults for sendThrottled, sendRaw, throttlePeriod, etc are in the following actions:
	/**
	 * Get the sendThrottled value from the given configuration
	 * @see ConfigureUpdates
	 */
	action getSendThrottled(dictionary<string,string> defaults, dictionary<string,string> config) returns boolean {
		string c:=getConfig(defaults, config, "sendThrottled", "true");
		return c = "true";
	}

	/**
	 * Get the sendThrottledUser value from the given configuration
	 * @see ConfigureUpdates
	 */
	action getSendThrottledUser(dictionary<string,string> defaults, dictionary<string,string> config) returns boolean {
		string c:=getConfig(defaults, config, "sendThrottledUser", "false");
		return c = "true";
	}
	
	/**
	 * Get the sendRaw value from the given configuration
	 * @see ConfigureUpdates
	 */
	action getSendRaw(dictionary<string,string> defaults, dictionary<string,string> config) returns boolean {
		string c:=getConfig(defaults, config, "sendRaw", "true");
		return c = "true";
	}
	
	/**
	 * Get the sendRawUser value from the given configuration
	 * @see ConfigureUpdates
	 */
	action getSendRawUser(dictionary<string,string> defaults, dictionary<string,string> config) returns boolean {
		string c:=getConfig(defaults, config, "sendRawUser", "false");
		return c = "true";
	}
	
	/**
	 * Get the throttlePeriod value from the given configuration
	 * @see ConfigureUpdates
	 */
	action getThrottlePeriod(dictionary<string,string> defaults, dictionary<string,string> config) returns float {
		string c:=getConfig(defaults, config, "throttlePeriod", "0.0");
		return float.parse(c);
	}
	
	/**
	 * Get the routeUpdate value from the given configuration
	 * @see ConfigureUpdates
	 */
	action getRouteUpdate(dictionary<string,string> defaults, dictionary<string,string> config) returns boolean {
		string c:=getConfig(defaults, config, "routeUpdate", "false");
		return c = "true";
	}
	

	/**
	 * Get the specified key from the configuration dictionaries, reverting to the default 
	 * if none specified.
	 */
	action getConfig(dictionary<string,string> defaults,
	                 dictionary<string,string> config, 
	                 string key, string _default) returns string {
		if config.hasKey(key) then {
			return config[key];
		}
		if defaults.hasKey(key) then {
			return defaults[key];
		}
		return _default;
	}

	action configurationManager(dictionary<string, string> defaultConfig, dictionary<string, dictionary<string, string> > configurations) {
		// the recognised ConfigureUpdates configuration keys, as above:
		dictionary<string,boolean> KNOWN_CONFIG_KEYS := {"sendThrottled":true, "throttlePeriod":false,
		 "sendRaw":true, "sendThrottledUser":true, "sendRawUser":true, "routeUpdate":true};

		dictionary <string,string> EMPTY_DICT:=new dictionary<string,string>;
		ConfigureUpdates cu;
		on all ConfigureUpdates():cu {
			string key;
			for key in cu.configuration.keys() {
				if not KNOWN_CONFIG_KEYS.hasKey(key) then {
					log "Unrecognized configuration property "+key+" in event "+cu.toString() at WARN;
				}
			}
			if cu.scenarioId = "" then {
				mergeConfiguration(cu.configuration, defaultConfig);
				log "Received "+cu.toString()+" : defaults applicable to all scenarios" at INFO;
			} else {
				if not configurations.hasKey(cu.scenarioId) then {
					configurations.add(cu.scenarioId, new dictionary<string,string>);
				}
				mergeConfiguration(cu.configuration, configurations[cu.scenarioId]);
				on ScenarioProcessedUpdates(cu.scenarioId) -> completed ConfigureUpdates(scenarioId=cu.scenarioId) {
					log "Received "+cu.toString()+" : applied to scenario" at INFO;
				}
				on completed ConfigureUpdates(scenarioId=cu.scenarioId) and not ScenarioProcessedUpdates(cu.scenarioId) {
					log "Received "+cu.toString()+" : for scenario that is not yet defined" at INFO;
				}
			}
		}

		GetConfiguration getConfig;
		on all GetConfiguration():getConfig {
			dictionary<string,string> config:=EMPTY_DICT;
			if configurations.hasKey(getConfig.scenarioId) then {
				config:=configurations[getConfig.scenarioId];
			}
			route Configuration(getConfig.scenarioId, defaultConfig, config);
		}	
		GetAllConfiguration gac;
		on all GetAllConfiguration():gac {
			route AllConfiguration(gac.requestId, defaultConfig, configurations);
		}
	}
		
}

event CallbackHelper {
	sequence<action<> > callbacks;
	action callback {
		action<> c;
		for c in callbacks {
			c();
		}
	}
}



/**
 * Base event for tracking configuration for a given scenario
 */
event ScenarioServiceUpdaterBase {
	// these are internal and should not be set by users
	string scenarioId;
	dictionary<string,string> defaultConfig;
	dictionary<string,string> config;
	ScenarioServiceLibrary lib;
	boolean sendThrottled;
	boolean sendRaw;
	boolean sendAny;
	boolean emitAny;
	boolean sendThrottledUser;
	boolean sendRawUser;
	boolean routeUpdate;
	float throttlePeriod;
	float throttleStart;
	sequence<listener> listeners;
	string controlChannel;
	string rawChannel;
	string dataChannel;

	/**
	 * Called by monitor at onload time
	 * Will maintain configuration for this scenario
	 * @param sId the scenarioId
	 */
	action init(string sId, action<> cb_onUpdate) {
		scenarioId:=sId;
		controlChannel := lib.getControlChannel(scenarioId);
		rawChannel := lib.getRawChannel(scenarioId);
		dataChannel := lib.getDataChannel(scenarioId);
		route GetConfiguration(scenarioId);
		Configuration c;
		listener l:=on Configuration(scenarioId=scenarioId):c {
			config := c.configuration;
			defaultConfig := c.defaults;
			configurationUpdated();
			cb_onUpdate();
		}
		listeners.append(l);
	}

	/**
	 * Listen for further configuration changes.
	 * @param cb_onUpdate callback upon configuration having been updated
	 */	
	action listenToConfigureUpdates(action<> cb_onUpdate) {
		ConfigureUpdates cu;
		listener l:=on all ConfigureUpdates(scenarioId=""):cu or all ConfigureUpdates(scenarioId=scenarioId):cu {
			if(cu.scenarioId != "") then {
				route ScenarioProcessedUpdates(cu.scenarioId);
			}
			onConfigureUpdates(cu);
			cb_onUpdate();
		}
		listeners.append(l);
	}

	/**
	 * Called when new ConfigureUpdates event available
	 * @param sId the scenarioId
	 */
	action onConfigureUpdates(ConfigureUpdates cu) {
		if cu.scenarioId = "" then {
			lib.mergeConfiguration(cu.configuration, defaultConfig);
		} else {
			lib.mergeConfiguration(cu.configuration, config);
		}
		configurationUpdated();
	}
	
	/**
	 * Called when the configuration should be re-parsed.
	 * @param sId the scenarioId
	 */
	action configurationUpdated() {
		sendThrottled:=lib.getSendThrottled(defaultConfig, config);
		sendThrottledUser:=lib.getSendThrottledUser(defaultConfig, config);
		if sendThrottled or sendThrottledUser then {
			throttlePeriod:=lib.getThrottlePeriod(defaultConfig, config);
			if(throttlePeriod < 0.0) then {
				sendThrottled:=false;
				sendThrottledUser:=false;
			}
			throttleStart:=currentTime;
		}
		sendRaw:=lib.getSendRaw(defaultConfig, config);
		sendRawUser:=lib.getSendRawUser(defaultConfig, config);
		routeUpdate:=lib.getRouteUpdate(defaultConfig, config);
		sendAny:= sendRaw or sendThrottled or routeUpdate or sendRawUser or sendThrottledUser;
		emitAny:= sendRaw or sendThrottled or sendRawUser or sendThrottledUser;
	}

	/** 
	 * Get whether this scenario should send on the throttled (Data) channel
	 */
	action isSendThrottled() returns boolean {
		return sendThrottled or sendThrottledUser;
	}

	/** 
	 * Get whether this scenario should send on the raw channel
	 */
	action isSendRaw() returns boolean {
		return sendRaw or sendRawUser;
	}

	action doEmit(string emitted, string owner) {
		if sendRaw then {
			emit emitted to rawChannel;
		}
		if sendThrottled then {
			emit emitted to dataChannel;
		}
		if sendRawUser then {
			emit emitted to lib.getRawUserChannel(rawChannel, owner);
		}
		if sendThrottledUser then {
			emit emitted to lib.getDataUserChannel(dataChannel, owner);
		}
	}

	/**
 	 * Kill any listeners this object has started
	 */
	action destroy() {
		listener l;
		for l in listeners {
			l.quit();
		}
	}
}


/**
 * Utility event for tracking configuration for a given scenario.
 * This event is suitable for use by monitors which spawn per instance
 * (e.g. Scenarios)
 * 
 * This event also uses a callback to get the updates (supplied in
 * instanceInit). If the scenario is configured to only send throttled 
 * updates, the callback is only called when the throttling period 
 * determines an update should be sent - thus, the scenario does not
 * need to generate the output sequence<string> except when needed,
 * which can improve performance in such a configuration.
 * 
 * actions starting with an underscore should be considered private 
 * and not called by users of this event.
 */
event ScenarioServiceUpdaterSingleInstance {
	// these are internal and should not be set by users
	string scenarioId;
	integer scenarioInstanceId;
	ScenarioServiceLibrary lib;
	listener throttlingListener;
	ScenarioServiceUpdaterBase base;
	boolean havePending;
	float latestUpdate;
	action<> returns sequence<string> getUpdate;
	Update update;
	boolean needUpdate;
	context mainContext;
	string owner;
	string controlChannel;
	string rawChannel;
	string dataChannel;

	/**
	 * Called by monitor at onload time
	 * Will maintain configuration for this scenario
	 */
	action init(string sId) {
		init_cb(sId, _noopAction);
	}
	
	/**
	 * Called by monitor at onload time
	 * Will maintain configuration for this scenario.
	 * cb_init is called when initialisation is complete
	 */
	action init_cb(string sId, action<> cb_init) {
		base.init(sId, cb_init);
		scenarioId:=sId;
		controlChannel := lib.getControlChannel(scenarioId);
		rawChannel := lib.getRawChannel(scenarioId);
		dataChannel := lib.getDataChannel(scenarioId);
		base.listenToConfigureUpdates(_noopAction);
		mainContext:=context.current();
	}

	action _noopAction() {
	}
	

	/**
	 * Called by monitor after spawn
	 * Will maintain configuration for this scenario, and update listeners appropriately.
	 * @param getUpdateCallback a callback to get the latest outputFieldValues - may be called at any time, must 
         *        always return a consistent set of outputs
	 */
	action instanceInit(integer id, action<> returns sequence<string> getUpdateCallback, string _owner) {
		scenarioInstanceId:=id;
		owner:=_owner;
		getUpdate:=getUpdateCallback;
		update.scenarioId:=scenarioId;
		update.scenarioInstanceId:=scenarioInstanceId;
		base.listenToConfigureUpdates(_configurationUpdated);
		_configurationUpdated();
		listener l:=on all SendQueuedUpdatesNow() {
			_sendThrottledUpdate();
		}
		base.listeners.append(l);
	}

	/** 
	 * Get whether this scenario should route updates
	 */
	action isRouteUpdate() returns boolean {
		return base.routeUpdate;
	}

	/**
 	 * Kill any listeners this object has started
	 */
	action destroy() {
		base.destroy();
		throttlingListener.quit();
	}
	  
	/**
	 * called in instances (not factories) when configuration has changed
	 */
	action _configurationUpdated {
		if base.isSendThrottled() then {
			throttlingListener.quit();
			flushPending();
			if(base.throttlePeriod >= 0.0) then {
				if havePending then {
					_setupThrottleListener();
				}
			}
		}
	}

	/**
	 * set up a throttled listener according to throttlePeriod control
	 */
	action _setupThrottleListener {
		if base.throttlePeriod > 0.0 then {
			float offset:=currentTime-base.throttleStart;
			float t:=((offset/base.throttlePeriod).floor()+1).toFloat();
			throttlingListener:=on wait((t*base.throttlePeriod)-offset) {
				_sendThrottledUpdate();
			}
		} else {
			_sendThrottledUpdate();
		}
	}

	/**
	 * actually send an update on the throttled channel
	 */
	action _sendThrottledUpdate {
		if not havePending then {
			return;
		}
		if needUpdate then {
			update.outputFieldValues:=getUpdate();
			update.timeStamp:=latestUpdate;
			needUpdate:=false;
		}
		if base.sendThrottled then {
			send update to dataChannel;
		}
		if base.sendThrottledUser then {
			send update to lib.getDataUserChannel(dataChannel, owner);
		}
		havePending:=false;
	}

	/**
	 * flush any pending update on the throttled channel.
	 */
	action flushPending() {
		if havePending then {
			_sendThrottledUpdate();
			throttlingListener.quit();
		}
	}	

	/**
 	 * Called when a new update is available.
	 */
	action newUpdateAvailable() {
		needUpdate:=true;
		latestUpdate:=currentTime;
 		if base.sendRaw or base.routeUpdate then {
			if needUpdate then {
				update.outputFieldValues:=getUpdate();
				update.timeStamp:=currentTime;
				needUpdate:=false;
			}
			if base.sendRaw then {
				send update to rawChannel;
			}
			if base.sendRawUser then {
				send update to lib.getRawUserChannel(rawChannel, owner);
			}
			if base.routeUpdate then {
				route update;
			}
		}
		if base.isSendThrottled() and not havePending then {
			havePending:=true;
			_setupThrottleListener();
		}
	}
	
	/**
 	 * Called to send a new Acknowledgement event.
	 */
	action emitAcknowledgement(integer messageId) {
		Acknowledge ack:=Acknowledge(scenarioId, messageId, scenarioInstanceId, true, getUpdate());
		if base.routeUpdate then {
			route ack;
		}
		if base.emitAny then {
			send ack to controlChannel;
		}
	}
				
	/**
 	 * Called to send a new Nak event.
	 */
	action emitNack(integer messageId) {
		Acknowledge nack:=Acknowledge(scenarioId, messageId, scenarioInstanceId, false, new sequence<string>);
		if base.routeUpdate then {
			route nack;
		}
		if base.emitAny then {
			send nack to controlChannel;
		}
	}
	
	/**
 	 * Called to send a new Created event.
	 */
	action emitCreated(integer messageId, string owner, string state, sequence<string> inputVariables, sequence<string> outputVariables) {
		if base.sendAny then {
			Created created:=Created(scenarioId, messageId, scenarioInstanceId, owner, state, inputVariables, outputVariables);
			route created;
			if base.emitAny then {
				base.doEmit(created.toString(), owner);
			}
		}
	}
	
	/**
 	 * Called to send a new Edited event.
	 */
	action emitEdited(integer messageId, sequence<string> inputVariables) {
		flushPending();
		if base.sendAny then {
			Edited edited:=Edited(scenarioId, messageId, scenarioInstanceId, inputVariables, getUpdate());
			if base.routeUpdate then {
				route edited;
			}
			if base.emitAny then {
				base.doEmit(edited.toString(), owner);
			}
		}
		emitOpCompleted(messageId);
	}

	/**
 	 * Called to say an operation has completed; implied by emitEdited. Must be called before emitInstanceDied.
	 */
	action emitOpCompleted(integer messageId) {
		if(context.current().getId()!=mainContext.getId()) then {
			send OperationCompleted(scenarioId, scenarioInstanceId, messageId) to mainContext;
		}
	}

	/**
 	 * Called to send a new Deleted event.
	 */
	action emitDeleted(integer messageId) {
		flushPending();
		if base.sendAny then {
			Deleted deleted:=Deleted(scenarioId, messageId, scenarioInstanceId);
			if base.routeUpdate then {
				route deleted;
			}
			if base.emitAny then {
				base.doEmit(deleted.toString(), owner);
			}
		}
		throttlingListener.quit();
		notifyInstanceDied();
	}

	/**
 	 * Called to send an instance Died event (either of failed, ended)
	 */
	action emitInstanceDied() {
		flushPending();
		if base.sendAny then {
			InstanceDied iDied:=InstanceDied(scenarioId, scenarioInstanceId);
			if base.emitAny then {
				base.doEmit(iDied.toString(), owner);
			}
			if mainContext.getId()=context.current().getId() then {
				route iDied;
			}
		}
		throttlingListener.quit();
	}

	/**
 	 * Called to notify the scenario service monitor that we have gone away - must be called 
 	 * after emitting any events regarding this instance going away. Implied by emitDeleted.
	 */
	action notifyInstanceDied() {
		if mainContext.getId()!=context.current().getId() then {
			InstanceDied iDied:=InstanceDied(scenarioId, scenarioInstanceId);
			
			// give a chance for anyone monitoring this from its own context 
			// to handle the InstanceDied before the main context
			if base.routeUpdate then {
				route InstanceDied(scenarioId, scenarioInstanceId);
			}

			send iDied to mainContext;
		}
	}
	
	/**
 	 * Called to send a new StateChange event.
	 */
	action emitStateChange(string state) {
		flushPending();
		StateChange stchange:=StateChange(scenarioId, scenarioInstanceId, state);
		if mainContext.getId()!=context.current().getId() then {
			send stchange to mainContext;
		} else {
			route stchange;
		}
		if base.emitAny then {
			base.doEmit(stchange.toString(), owner);
		}
	}

	/**
 	 * Called to send an instance in response to a RequestInstancesInternal event
	 */
	action emitInstance(RequestInstancesInternal request, string owner, string state, sequence<string> input, sequence<string> output) {
		Instance instance:=Instance(scenarioId, request.messageId, scenarioInstanceId, owner, state, input, output);
		if request.internal then {
			if mainContext.getId() != context.current().getId() then {
				send instance to mainContext;
			} else {
				route instance;
			}
		} else {
			if(base.emitAny) then {
				send instance to request.channel;
			}
		}
		if mainContext.getId() != context.current().getId() then {
			send RequestInstancesParallelDone(scenarioId, request.messageId, scenarioInstanceId) to mainContext;
		}
	}

	/**
 	 * Called when the instance has failed.  input and output are the input
 	 * and output variables as at the last Update/ Edited point.
	 */
	action finished(string state, string owner, sequence<string> input, sequence<string> output) {
		ScenarioFinished scenFinished:=ScenarioFinished(scenarioId, scenarioInstanceId, owner, state, input, output);
		if mainContext.getId() != context.current().getId() then {
			send scenFinished to mainContext;
		} else {
			route scenFinished;
		}
	}
	
}


/**
 * Utilitiy event for tracking configuration for a given scenario.
 * This event is suitable for use by monitors which spawn per scenario,
 * but not per instance. (e.g. ScenarioService, DataViewService)
 * 
 * actions starting with an underscore should be considered private 
 * and not called by users of this event.
 * 
 * Note that this updater only honours sendThrottledUser changes at the next throttling period
 * (it does not record the owner if sendThrottledUser is not true)
 */
event ScenarioServiceUpdaterMultipleInstances {
	// these are internal and should not be set by users
	string scenarioId;
	ScenarioServiceLibrary lib;
	listener throttlingListener;
	ScenarioServiceUpdaterBase base;
	boolean currentlySendingThrottledUser;
	dictionary<integer, Update> updates;
	dictionary<integer, string> owners;
	context mainContext;
	string controlChannel;
	string rawChannel;
	string dataChannel;

	/**
	 * Called by monitor for each scenario
	 * Will maintain configuration for this scenario Id
	 */
	action init(string sId, context mainCtx) {
		_init(sId, mainCtx, _configurationUpdated);
	}
	
	/**
	 * Called by monitor for each scenario
	 * Will maintain configuration for this scenario Id
	 */
	action init_cb(string sId, context mainCtx, action<> cb_initComplete) {
		CallbackHelper callbackHelper:=new CallbackHelper;
		callbackHelper.callbacks.append(cb_initComplete);
		callbackHelper.callbacks.append(_configurationUpdated);
		_init(sId, mainCtx, callbackHelper.callback);
	}

	/**
	 * Implementation of init and init_cb
	 */
	action _init(string sId, context mainCtx, action<> cb_initComplete) {
		base.init(sId, cb_initComplete);
		mainContext:=mainCtx;
		scenarioId:=sId;
		controlChannel := lib.getControlChannel(scenarioId);
		rawChannel := lib.getRawChannel(scenarioId);
		dataChannel := lib.getDataChannel(scenarioId);
		listener l:=on all SendQueuedUpdatesNow() {
			_sendThrottledUpdates();
		}
		base.listeners.append(l);
		base.listenToConfigureUpdates(_configurationUpdated);
	}
	
	/** 
	 * Get whether this scenario should route updates
	 */
	action isRouteUpdate() returns boolean {
		return base.routeUpdate;
	}

	/**
 	 * Kill any listeners this object has started
	 */
	action destroy() {
		base.destroy();
		throttlingListener.quit();
	}
	  

	/**
	 * called in instances (not factories) when configuration has changed
	 */
	action _configurationUpdated {
		if base.isSendThrottled() then {
			throttlingListener.quit();
			flushPending();
			if(base.throttlePeriod >= 0.0) then {
				_setupThrottleListener();
			}
		}
	}

	/**
	 * set up a throttled listener according to throttlePeriod control
	 */
	action _setupThrottleListener {
		if base.throttlePeriod > 0.0 then {
			throttlingListener:=on all wait(base.throttlePeriod) {
				_sendThrottledUpdates();
			}
		} else {
			_sendThrottledUpdates();
		}
	}

	/**
	 * actually send an update on the throttled channel
	 */
	action _sendThrottledUpdates {
		integer instance;
		if base.sendThrottled then {
			for instance in updates.keys() {
				send updates[instance] to dataChannel;
			}
		}
		if currentlySendingThrottledUser then {
			for instance in updates.keys() {
				send updates[instance] to lib.getDataUserChannel(dataChannel, owners[instance]);
			}
		}
		owners.clear();
		updates.clear();
		currentlySendingThrottledUser := base.sendThrottledUser;
	}

	/**
	 * flush any pending update on the throttled channel.
	 */
	action flushPending() {
		_sendThrottledUpdates();
	}	

	/**
 	 * Flush pending throttled data for one instance
	 */
	action flushPendingInstance(integer scenarioInstanceId) {
		if updates.hasKey(scenarioInstanceId) then {
			if base.sendThrottled then {
				send updates[scenarioInstanceId] to dataChannel;
			}
			if currentlySendingThrottledUser then {
				send updates[scenarioInstanceId] to lib.getDataUserChannel(dataChannel, owners[scenarioInstanceId]);
			}
			updates.remove(scenarioInstanceId);
			if owners.hasKey(scenarioInstanceId) then {
				owners.remove(scenarioInstanceId);
			}
		}
	}	

	/**
 	 * Called when a new update is available. (This variant allows setting of the time parameter)
	 */
	action emitUpdate_time(integer scenarioInstanceId, float time, sequence<string> output, string owner) {
		if base.sendAny then {
			Update update:=Update(scenarioId, scenarioInstanceId, time, output);
			if base.sendRaw then {
				send update to rawChannel;
			}
			if base.sendRawUser then {
				send update to lib.getRawUserChannel(rawChannel, owner);
			}
			if base.routeUpdate then {
				route update;
			}
			if base.isSendThrottled() then {
				if base.throttlePeriod > 0.0 then {
					updates.add(scenarioInstanceId, update);
					if currentlySendingThrottledUser then {
						owners.add(scenarioInstanceId, owner);
					}
				} else {
					send update to dataChannel;
				}
			}
		}
	}
	
	/**
 	 * Called when a new update is available.
	 */
	action emitUpdate(integer scenarioInstanceId, sequence<string> output, string owner) {
		emitUpdate_time(scenarioInstanceId, currentTime, output, owner);
	}

	/**
 	 * Called to send a new Acknowledgement event.
	 */
	action emitAcknowledgement(integer messageId, integer scenarioInstanceId, sequence<string> output) {
		Acknowledge ack:=Acknowledge(scenarioId, messageId, scenarioInstanceId, true, output);
		if base.routeUpdate then {
			route ack;
		}
		if base.emitAny then {
			send ack to controlChannel;
		}
	}
				
	/**
 	 * Called to send a new Nak event.
	 */
	action emitNack(integer messageId, integer scenarioInstanceId) {
		Acknowledge nack:=Acknowledge(scenarioId, messageId, scenarioInstanceId, false, new sequence<string>);
		if base.routeUpdate then {
			route nack;
		}
		if base.emitAny then {
			send nack to controlChannel;
		}
	}
	
	/**
 	 * Called to send a new Created event.
	 */
	action emitCreated(integer messageId, integer scenarioInstanceId, string owner, string state, sequence<string> inputVariables, sequence<string> outputVariables) {
		if base.sendAny then {
			Created created:=Created(scenarioId, messageId, scenarioInstanceId, owner, state, inputVariables, outputVariables);
			route created;
			if base.emitAny then {
				string sCreated:=created.toString();
				base.doEmit(sCreated, owner);
			}
		}
	}

	/**
 	 * Called to send any received events (except for instance) for this scenario.
	 */
	action emitReceivedEvents() {
		dictionary<integer, string> instanceOwners:=new dictionary<integer, string>;
		{
			Update update;
			listener l:=on all Update(scenarioId = scenarioId):update {
				if base.sendRaw then {
					send update to rawChannel;
				}
				if base.sendRawUser and instanceOwners.hasKey(update.scenarioInstanceId) then {	
					send update to lib.getRawUserChannel(rawChannel, instanceOwners[update.scenarioInstanceId]);
				}
				if base.isSendThrottled() then {
					if base.throttlePeriod > 0.0 then {
						updates.add(update.scenarioInstanceId, update);
						string owner:="*";
						if instanceOwners.hasKey(update.scenarioInstanceId) then {
							owner:=instanceOwners[update.scenarioInstanceId];
						}
						if currentlySendingThrottledUser then {
							owners.add(update.scenarioInstanceId, owner);
						}
					} else {
						send update to dataChannel;
					}
				}
			}
			base.listeners.append(l);
		}
		{
			Created created;
			listener l:=on all Created(scenarioId = scenarioId):created {
				if(created.owner != "*") then {
					instanceOwners.add(created.scenarioInstanceId, created.owner);
				}
				base.doEmit(created.toString(), created.owner);				
			}
			base.listeners.append(l);
		}
		{
			Deleted deleted;
			listener l:=on all Deleted(scenarioId = scenarioId):deleted {
				flushPendingInstance(deleted.scenarioInstanceId);
				string owner:="*";
				if instanceOwners.hasKey(deleted.scenarioInstanceId) then {
					owner:=instanceOwners[deleted.scenarioInstanceId];
					instanceOwners.remove(deleted.scenarioInstanceId);
				}
				base.doEmit(deleted.toString(), owner);		
			}
			base.listeners.append(l);
		}
		{
			Edited edited;
			listener l:=on all Edited(scenarioId = scenarioId):edited {
				flushPendingInstance(edited.scenarioInstanceId);
				string owner:="*";
				if instanceOwners.hasKey(edited.scenarioInstanceId) then {
					owner:=instanceOwners[edited.scenarioInstanceId];
				}
				base.doEmit(edited.toString(), owner);		
			}
			base.listeners.append(l);
		}
		{
			InstanceDied instanceDied;
			listener l:=on all InstanceDied(scenarioId = scenarioId):instanceDied {
				flushPendingInstance(instanceDied.scenarioInstanceId);
				string owner:="*";
				if instanceOwners.hasKey(instanceDied.scenarioInstanceId) then {
					owner:=instanceOwners[instanceDied.scenarioInstanceId];
				}
				base.doEmit(instanceDied.toString(), owner);		
			}
			base.listeners.append(l);
		}
	}
	
	/**
 	 * Called to send a new Edited event.
	 */
	action emitEdited(integer messageId, integer scenarioInstanceId, sequence<string> inputVariables, sequence<string> outputVariables, string owner) {
		flushPendingInstance(scenarioInstanceId);
		if base.sendAny then {
			Edited edited:=Edited(scenarioId, messageId, scenarioInstanceId, inputVariables, outputVariables);
			if base.routeUpdate then {
				route edited;
			}
			if base.emitAny then {
				base.doEmit(edited.toString(), owner);
			}
		}
		emitOpCompleted(messageId, scenarioInstanceId);
	}

	/**
 	 * Called to say an operation has completed; implied by emitEdited. Must be called before emitInstanceDied.
	 */
	action emitOpCompleted(integer messageId, integer scenarioInstanceId) {
		if(context.current().getId()!=mainContext.getId()) then {
			send OperationCompleted(scenarioId, scenarioInstanceId, messageId) to mainContext;
		}
	}

	/**
 	 * Called to send a new Deleted event.
	 */
	action emitDeleted(integer messageId, integer scenarioInstanceId, string owner) {
		flushPendingInstance(scenarioInstanceId);
		if base.sendAny then {
			Deleted deleted:=Deleted(scenarioId, messageId, scenarioInstanceId);
			if base.routeUpdate then {
				route deleted;
			}
			if base.emitAny then {
				base.doEmit(deleted.toString(), owner);
			}
		}
		notifyInstanceDied(scenarioInstanceId);
	}

	/**
 	 * Called to notify the scenario service monitor that we have gone away - must be called 
 	 * after emitting any events regarding this instance going away. Implied by emitDeleted.
	 */
	action notifyInstanceDied(integer scenarioInstanceId) {
		if mainContext.getId()!=context.current().getId() then {
			InstanceDied iDied:=InstanceDied(scenarioId, scenarioInstanceId);
			send iDied to mainContext;
		}
	}
	

	
	/**
 	 * Called to send an instance Died event (either of failed, ended)
	 */
	action emitInstanceDied(integer scenarioInstanceId, string owner) {
		flushPendingInstance(scenarioInstanceId);
		if base.sendAny then {
			InstanceDied iDied:=InstanceDied(scenarioId, scenarioInstanceId);
			if base.emitAny then {
				base.doEmit(iDied.toString(), owner);
			}
			if mainContext.getId()=context.current().getId() then {
				route iDied;
			}
		}
	}
	
	/**
 	 * Called to send a new StateChange event.
	 */
	action emitStateChange(string state, integer scenarioInstanceId, string owner) {
		flushPendingInstance(scenarioInstanceId);
		StateChange stchange:=StateChange(scenarioId, scenarioInstanceId, state);
		if mainContext.getId()!=context.current().getId() then {
			send stchange to mainContext;
		} else {
			route stchange;
		}
		if base.emitAny then {
			base.doEmit(stchange.toString(), owner);
		}
	}

	/**
 	 * Called to send an instance in response to a RequestInstancesInternal event
	 */
	action emitInstance(RequestInstancesInternal request, integer scenarioInstanceId, string owner, string state, sequence<string> input, sequence<string> output) {
		Instance instance:=Instance(scenarioId, request.messageId, scenarioInstanceId, owner, state, input, output);
		if request.internal then {
			if mainContext.getId() != context.current().getId() then {
				send instance to mainContext;
			} else {
				route instance;
			}
		} else {
			if(base.emitAny) then {
				send instance to request.channel;
			}
		}
		if mainContext.getId() != context.current().getId() then {
				send RequestInstancesParallelDone(scenarioId, request.messageId, scenarioInstanceId) to mainContext;
		}
	}
	/**
 	 * Called to send an instance that has already been seen in the current context
	 */
	action emitReceivedInstance(RequestInstancesInternal request, Instance instance) {
		if request.internal then {
			if mainContext.getId() != context.current().getId() then {
				send instance to mainContext;
			}
		} else {
			if(base.emitAny) then {
				send instance to request.channel;
			}
		}
	}
	
}


/*
 * Monitor that performs the following tasks:
 *   - routing/emitting ScenarioServiceLoaded when the service is loaded
 *   - routing/emitting ScenarioServiceUnloaded when the service is unloaded
 *   - routing/emitting a nack if a Create request is ignored
 *   - maintains latest configuration
 *   - tracks state of ended/ failed scenarios
 *   - forwards Edit, delete events to scenarios in other contexts
 *
 */
monitor ScenarioService {

	event PendingOperation {
		integer messageId;
		integer type; // 0 = delete, 1 = edit
	}

	listener throttledSenderListener;
	ScenarioServiceLibrary lib;
	RequestScenarios requestScenarios;
	boolean requestingScenarios;
	
	// MetaData relating to the interface
	dictionary<string,string> interfaceMetaData := {
		"interface.package"     :"com.apama.scenario",
		"interface.name"        :"ScenarioService",
		"interface.fileName"    :"ScenarioService.mon",
		"interface.vendor"      :"Apama",
		"interface.version"     :"5.3.0.0.247085",
		"interface.fullVersion" :"rel/5.3.0.x@247085",
		"interface.language"    :"MonitorScript"
	};
	
	// Channel names	
	string scenarioServiceChannel := "com.apama.scenario";
	integer highestInstanceId;


	// the first mThread handles scenario discovery and maps some events to internal events
	action onload {
		// print version
		log "ScenarioService interface loaded. MetaData: "+interfaceMetaData.toString() at INFO;
		
		// generate the ScenarioServiceLoaded event
		route ScenarioServiceLoaded();
		send ScenarioServiceLoaded() to scenarioServiceChannel;

		dictionary <string,string> defaultConfig:=new dictionary<string,string>;
		dictionary <string, dictionary<string,string> > configurations:=new dictionary<string, dictionary<string,string> >;
		lib.configurationManager(defaultConfig, configurations);
		RequestInstancesOnChannel requestInstancesOnChannel;
		on all RequestInstancesOnChannel():requestInstancesOnChannel {
			route RequestInstancesInternal(requestInstancesOnChannel.scenarioId, requestInstancesOnChannel.messageId, requestInstancesOnChannel.channel, false, "", false);
			on RequestInstancesDone(scenarioId=requestInstancesOnChannel.scenarioId, messageId=requestInstancesOnChannel.messageId) {
				send RequestInstancesDone(requestInstancesOnChannel.scenarioId, requestInstancesOnChannel.messageId) to requestInstancesOnChannel.channel;
			}
		}

		RequestInstancesOnChannelByUser requestInstancesOnChannelByUser;
[...]
TIME 0000000e 1444725082.8,1
TIME 0000000e 1444725087.8,1
TIME 0000000e 1444725092.8,1
TIME 0000000e 1444725097.8,1
TIME 0000000e 1444725102.8,1
TIME 0000000e 1444725107.8,1
TIME 0000000e 1444725112.8,1
TIME 0000000e 1444725117.8,1
TIME 0000000e 1444725122.8,1
TIME 0000000e 1444725127.8,1
TIME 0000000e 1444725132.8,1
TIME 0000000e 1444725137.8,1
TIME 0000000e 1444725142.8,1
TIME 0000000e 1444725147.8,1
TIME 0000000e 1444725152.8,1
TIME 0000000e 1444725157.8,1
TIME 0000000e 1444725162.8,1
TIME 0000000e 1444725167.8,1
TIME 0000000e 1444725172.8,1
TIME 0000000e 1444725177.8,1
TIME 0000000e 1444725182.8,1
TIME 0000000e 1444725187.8,1
TIME 0000000e 1444725192.8,1
TIME 0000000e 1444725197.8,1
TIME 0000000e 1444725202.8,1
TIME 0000000e 1444725207.8,1
TIME 0000000e 1444725212.8,1
TIME 0000000e 1444725217.8,1
TIME 0000000e 1444725222.8,1
TIME 0000000e 1444725227.8,1
TIME 0000000e 1444725232.8,1
TIME 0000000e 1444725237.8,1
TIME 0000000e 1444725242.8,1
TIME 0000000e 1444725247.8,1
TIME 0000000e 1444725252.8,1
TIME 0000000e 1444725257.8,1
TIME 0000000e 1444725262.8,1
TIME 0000000e 1444725267.8,1
TIME 0000000e 1444725272.8,1
TIME 0000000e 1444725277.8,1
TIME 0000000e 1444725282.8,1
TIME 0000000e 1444725287.8,1
TIME 0000000e 1444725292.8,1
TIME 0000000e 1444725297.8,1
TIME 0000000e 1444725302.8,1
TIME 0000000e 1444725307.8,1
TIME 0000000e 1444725312.8,1
TIME 0000000e 1444725317.8,1
TIME 0000000e 1444725322.8,1
TIME 0000000e 1444725327.8,1
TIME 0000000e 1444725332.8,1
TIME 0000000e 1444725337.8,1
TIME 0000000e 1444725342.8,1
TIME 0000000e 1444725347.8,1
TIME 0000000e 1444725352.8,1
TIME 0000000e 1444725357.8,1
TIME 0000000e 1444725362.8,1
TIME 0000000e 1444725367.8,1
TIME 0000000e 1444725372.8,1
TIME 0000000e 1444725377.8,1
TIME 0000000e 1444725382.8,1
TIME 0000000e 1444725387.8,1
TIME 0000000e 1444725392.8,1
TIME 0000000e 1444725397.8,1
TIME 0000000e 1444725402.8,1
TIME 0000000e 1444725407.8,1
TIME 0000000e 1444725412.8,1
TIME 0000000e 1444725417.8,1
TIME 0000000e 1444725422.8,1
TIME 0000000e 1444725427.8,1
TIME 0000000e 1444725432.8,1
TIME 0000000e 1444725437.8,1
TIME 0000000e 1444725442.8,1
TIME 0000000e 1444725447.8,1
TIME 0000000e 1444725452.8,1
TIME 0000000e 1444725457.8,1
TIME 0000000e 1444725462.8,1
TIME 0000000e 1444725467.8,1
TIME 0000000e 1444725472.8,1
TIME 0000000e 1444725477.8,1
TIME 0000000e 1444725482.8,1
TIME 0000000e 1444725487.8,1
TIME 0000000e 1444725492.8,1
TIME 0000000e 1444725497.8,1
TIME 0000000e 1444725502.8,1
TIME 0000000e 1444725507.8,1
TIME 0000000e 1444725512.8,1
TIME 0000000e 1444725517.8,1
TIME 0000000e 1444725522.8,1
TIME 0000000e 1444725527.8,1
TIME 0000000e 1444725532.8,1
TIME 0000000e 1444725537.8,1
TIME 0000000e 1444725542.8,1
TIME 0000000e 1444725547.8,1
TIME 0000000e 1444725552.8,1
TIME 0000000e 1444725557.8,1
TIME 0000000e 1444725562.8,1
TIME 0000000e 1444725567.8,1
TIME 0000000e 1444725572.8,1
TIME 0000000e 1444725577.8,1
TIME 0000000e 1444725582.8,1
TIME 0000000e 1444725587.8,1
TIME 0000000e 1444725592.8,1
TIME 0000000e 1444725597.8,1
TIME 0000000e 1444725602.8,1
TIME 0000000e 1444725607.8,1
TIME 0000000e 1444725612.8,1
TIME 0000000e 1444725617.8,1
TIME 0000000e 1444725622.8,1
TIME 0000000e 1444725627.8,1
TIME 0000000e 1444725632.8,1
TIME 0000000e 1444725637.8,1
TIME 0000000e 1444725642.8,1
TIME 0000000e 1444725647.8,1
TIME 0000000e 1444725652.8,1
TIME 0000000e 1444725657.8,1
TIME 0000000e 1444725662.8,1
TIME 0000000e 1444725667.8,1
TIME 0000000e 1444725672.8,1
TIME 0000000e 1444725677.8,1
TIME 0000000e 1444725682.8,1
TIME 0000000e 1444725687.8,1
TIME 0000000e 1444725692.8,1
TIME 0000000e 1444725697.8,1
TIME 0000000e 1444725702.8,1
TIME 0000000e 1444725707.8,1
TIME 0000000e 1444725712.8,1
TIME 0000000e 1444725717.8,1
TIME 0000000e 1444725722.8,1
TIME 0000000e 1444725727.8,1
TIME 0000000e 1444725732.8,1
TIME 0000000e 1444725737.8,1
TIME 0000000e 1444725742.8,1
TIME 0000000e 1444725747.8,1
TIME 0000000e 1444725752.8,1
TIME 0000000e 1444725757.8,1
TIME 0000000e 1444725762.8,1
TIME 0000000e 1444725767.8,1
TIME 0000000e 1444725772.8,1
TIME 0000000e 1444725777.8,1
TIME 0000000e 1444725782.8,1
TIME 0000000e 1444725787.8,1
TIME 0000000e 1444725792.8,1
TIME 0000000e 1444725797.8,1
TIME 0000000e 1444725802.8,1
TIME 0000000e 1444725807.8,1
TIME 0000000e 1444725812.8,1
TIME 0000000e 1444725817.8,1
TIME 0000000e 1444725822.8,1
TIME 0000000e 1444725827.8,1
TIME 0000000e 1444725832.8,1
TIME 0000000e 1444725837.8,1
TIME 0000000e 1444725842.8,1
TIME 0000000e 1444725847.8,1
TIME 0000000e 1444725852.8,1
TIME 0000000e 1444725857.8,1
TIME 0000000e 1444725862.8,1
TIME 0000000e 1444725867.8,1
TIME 0000000e 1444725872.8,1
TIME 0000000e 1444725877.8,1
TIME 0000000e 1444725882.8,1
TIME 0000000e 1444725887.8,1
TIME 0000000e 1444725892.8,1
TIME 0000000e 1444725897.8,1
TIME 0000000e 1444725902.8,1
TIME 0000000e 1444725907.8,1
TIME 0000000e 1444725912.8,1
TIME 0000000e 1444725917.8,1
TIME 0000000e 1444725922.8,1
TIME 0000000e 1444725927.8,1
TIME 0000000e 1444725932.8,1
TIME 0000000e 1444725937.8,1
TIME 0000000e 1444725942.8,1
TIME 0000000e 1444725947.8,1
TIME 0000000e 1444725952.8,1
TIME 0000000e 1444725957.8,1
TIME 0000000e 1444725962.8,1
TIME 0000000e 1444725967.8,1
TIME 0000000e 1444725972.8,1
TIME 0000000e 1444725977.8,1
TIME 0000000e 1444725982.8,1
TIME 0000000e 1444725987.8,1
TIME 0000000e 1444725992.8,1
TIME 0000000e 1444725997.8,1
TIME 0000000e 1444726002.8,1
TIME 0000000e 1444726007.8,1
TIME 0000000e 1444726012.8,1
TIME 0000000e 1444726017.8,1
TIME 0000000e 1444726022.8,1
TIME 0000000e 1444726027.8,1
TIME 0000000e 1444726032.8,1
TIME 0000000e 1444726037.8,1
TIME 0000000e 1444726042.8,1
TIME 0000000e 1444726047.8,1
TIME 0000000e 1444726052.8,1
TIME 0000000e 1444726057.8,1
TIME 0000000e 1444726062.8,1
TIME 0000000e 1444726067.8,1
TIME 0000000e 1444726072.8,1
TIME 0000000e 1444726077.8,1
TIME 0000000e 1444726082.8,1
TIME 0000000e 1444726087.8,1
TIME 0000000e 1444726092.8,1
TIME 0000000e 1444726097.8,1
TIME 0000000e 1444726102.8,1
TIME 0000000e 1444726107.8,1
TIME 0000000e 1444726112.8,1
TIME 0000000e 1444726117.8,1
TIME 0000000e 1444726122.8,1
TIME 0000000e 1444726127.8,1
TIME 0000000e 1444726132.8,1
TIME 0000000e 1444726137.8,1
TIME 0000000e 1444726142.8,1
TIME 0000000e 1444726147.8,1
TIME 0000000e 1444726152.8,1
TIME 0000000e 1444726157.8,1
TIME 0000000e 1444726162.8,1
TIME 0000000e 1444726167.8,1
TIME 0000000e 1444726172.8,1
TIME 0000000e 1444726177.8,1
TIME 0000000e 1444726182.8,1
TIME 0000000e 1444726187.8,1
TIME 0000000e 1444726192.8,1
TIME 0000000e 1444726197.8,1
TIME 0000000e 1444726202.8,1
TIME 0000000e 1444726207.8,1
TIME 0000000e 1444726212.8,1
TIME 0000000e 1444726217.8,1
TIME 0000000e 1444726222.8,1
TIME 0000000e 1444726227.8,1
TIME 0000000e 1444726232.8,1
TIME 0000000e 1444726237.8,1
TIME 0000000e 1444726242.8,1
TIME 0000000e 1444726247.8,1
TIME 0000000e 1444726252.8,1
TIME 0000000e 1444726257.8,1
TIME 0000000e 1444726262.8,1
TIME 0000000e 1444726267.8,1
TIME 0000000e 1444726272.8,1
TIME 0000000e 1444726277.8,1
TIME 0000000e 1444726282.8,1
TIME 0000000e 1444726287.8,1
TIME 0000000e 1444726292.8,1
TIME 0000000e 1444726297.8,1
TIME 0000000e 1444726302.8,1
TIME 0000000e 1444726307.8,1
TIME 0000000e 1444726312.8,1
TIME 0000000e 1444726317.8,1
TIME 0000000e 1444726322.8,1
TIME 0000000e 1444726327.8,1
TIME 0000000e 1444726332.8,1
TIME 0000000e 1444726337.8,1
TIME 0000000e 1444726342.8,1
TIME 0000000e 1444726347.8,1
TIME 0000000e 1444726352.8,1
TIME 0000000e 1444726357.8,1
TIME 0000000e 1444726362.8,1
TIME 0000000e 1444726367.8,1
TIME 0000000e 1444726372.8,1
TIME 0000000e 1444726377.8,1
TIME 0000000e 1444726382.8,1
TIME 0000000e 1444726387.8,1
TIME 0000000e 1444726392.8,1
TIME 0000000e 1444726397.8,1
TIME 0000000e 1444726402.8,1
TIME 0000000e 1444726407.8,1
TIME 0000000e 1444726412.8,1
TIME 0000000e 1444726417.8,1
TIME 0000000e 1444726422.8,1
TIME 0000000e 1444726427.8,1
TIME 0000000e 1444726432.8,1
TIME 0000000e 1444726437.8,1
TIME 0000000e 1444726442.8,1
TIME 0000000e 1444726447.8,1
TIME 0000000e 1444726452.8,1
TIME 0000000e 1444726457.8,1
TIME 0000000e 1444726462.8,1
TIME 0000000e 1444726467.8,1
TIME 0000000e 1444726472.8,1
TIME 0000000e 1444726477.8,1
TIME 0000000e 1444726482.8,1
TIME 0000000e 1444726487.8,1
TIME 0000000e 1444726492.8,1
TIME 0000000e 1444726497.8,1
TIME 0000000e 1444726502.8,1
TIME 0000000e 1444726507.8,1
TIME 0000000e 1444726512.8,1
TIME 0000000e 1444726517.8,1
TIME 0000000e 1444726522.8,1
TIME 0000000e 1444726527.8,1
TIME 0000000e 1444726532.8,1
TIME 0000000e 1444726537.8,1
TIME 0000000e 1444726542.8,1
TIME 0000000e 1444726547.8,1
TIME 0000000e 1444726552.8,1
TIME 0000000e 1444726557.8,1
TIME 0000000e 1444726562.8,1
TIME 0000000e 1444726567.8,1
TIME 0000000e 1444726572.8,1
TIME 0000000e 1444726577.8,1
TIME 0000000e 1444726582.8,1
TIME 0000000e 1444726587.8,1
TIME 0000000e 1444726592.8,1
TIME 0000000e 1444726597.8,1
TIME 0000000e 1444726602.8,1
TIME 0000000e 1444726607.8,1
TIME 0000000e 1444726612.8,1
TIME 0000000e 1444726617.8,1
TIME 0000000e 1444726622.8,1
TIME 0000000e 1444726627.8,1
TIME 0000000e 1444726632.8,1
TIME 0000000e 1444726637.8,1
TIME 0000000e 1444726642.8,1
TIME 0000000e 1444726647.8,1
TIME 0000000e 1444726652.8,1
TIME 0000000e 1444726657.8,1
TIME 0000000e 1444726662.8,1
TIME 0000000e 1444726667.8,1
TIME 0000000e 1444726672.8,1
TIME 0000000e 1444726677.8,1
TIME 0000000e 1444726682.8,1
TIME 0000000e 1444726687.8,1
TIME 0000000e 1444726692.8,1
TIME 0000000e 1444726697.8,1
TIME 0000000e 1444726702.8,1
TIME 0000000e 1444726707.8,1
TIME 0000000e 1444726712.8,1
TIME 0000000e 1444726717.8,1
TIME 0000000e 1444726722.8,1
TIME 0000000e 1444726727.8,1
TIME 0000000e 1444726732.8,1
TIME 0000000e 1444726737.8,1
TIME 0000000e 1444726742.8,1
TIME 0000000e 1444726747.8,1
TIME 0000000e 1444726752.8,1
TIME 0000000e 1444726757.8,1
TIME 0000000e 1444726762.8,1
TIME 0000000e 1444726767.8,1
TIME 0000000e 1444726772.8,1
TIME 0000000e 1444726777.8,1
TIME 0000000e 1444726782.8,1
TIME 0000000e 1444726787.8,1
TIME 0000000e 1444726792.8,1
TIME 0000000e 1444726797.8,1
TIME 0000000e 1444726802.8,1
TIME 0000000e 1444726807.8,1
TIME 0000000e 1444726812.8,1
TIME 0000000e 1444726817.8,1
TIME 0000000e 1444726822.8,1
TIME 0000000e 1444726827.8,1
TIME 0000000e 1444726832.8,1
TIME 0000000e 1444726837.8,1
TIME 0000000e 1444726842.8,1
TIME 0000000e 1444726847.8,1
TIME 0000000e 1444726852.8,1
TIME 0000000e 1444726857.8,1
TIME 0000000e 1444726862.8,1
TIME 0000000e 1444726867.8,1
TIME 0000000e 1444726872.8,1
TIME 0000000e 1444726877.8,1
TIME 0000000e 1444726882.8,1
TIME 0000000e 1444726887.8,1
TIME 0000000e 1444726892.8,1
TIME 0000000e 1444726897.8,1
TIME 0000000e 1444726902.8,1
TIME 0000000e 1444726907.8,1
TIME 0000000e 1444726912.8,1
TIME 0000000e 1444726917.8,1
TIME 0000000e 1444726922.8,1
TIME 0000000e 1444726927.8,1
TIME 0000000e 1444726932.8,1
TIME 0000000e 1444726937.8,1
TIME 0000000e 1444726942.8,1
TIME 0000000e 1444726947.8,1
TIME 0000000e 1444726952.8,1
TIME 0000000e 1444726957.8,1
TIME 0000000e 1444726962.8,1
TIME 0000000e 1444726967.8,1
TIME 0000000e 1444726972.8,1
TIME 0000000e 1444726977.8,1
TIME 0000000e 1444726982.8,1
TIME 0000000e 1444726987.8,1
TIME 0000000e 1444726992.8,1
TIME 0000000e 1444726997.8,1
TIME 0000000e 1444727002.8,1
TIME 0000000e 1444727007.8,1
TIME 0000000e 1444727012.8,1
TIME 0000000e 1444727017.8,1
TIME 0000000e 1444727022.8,1
TIME 0000000e 1444727027.8,1
TIME 0000000e 1444727032.8,1
TIME 0000000e 1444727037.8,1
TIME 0000000e 1444727042.8,1
TIME 0000000e 1444727047.8,1
TIME 0000000e 1444727052.8,1
TIME 0000000e 1444727057.8,1
TIME 0000000e 1444727062.8,1
TIME 0000000e 1444727067.8,1
TIME 0000000e 1444727072.8,1
TIME 0000000e 1444727077.8,1
TIME 0000000e 1444727082.8,1
TIME 0000000e 1444727087.8,1
TIME 0000000e 1444727092.8,1
TIME 0000000e 1444727097.8,1
TIME 0000000e 1444727102.8,1
TIME 0000000e 1444727107.8,1
TIME 0000000e 1444727112.8,1
TIME 0000000e 1444727117.8,1
TIME 0000000e 1444727122.8,1
TIME 0000000e 1444727127.8,1
TIME 0000000e 1444727132.8,1
TIME 0000000e 1444727137.8,1
TIME 0000000e 1444727137.9,1
TIME 0000000e 1444727142.8,1
TIME 0000000e 1444727147.8,1
TIME 0000000e 1444727152.8,1
TIME 0000000e 1444727157.8,1
TIME 0000000e 1444727162.8,1
TIME 0000000e 1444727167.8,1
TIME 0000000e 1444727172.8,1
TIME 0000000e 1444727177.8,1
TIME 0000000e 1444727182.8,1
TIME 0000000e 1444727182.9,1
TIME 0000000e 1444727187.8,1
TIME 0000000e 1444727192.8,1
TIME 0000000e 1444727197.8,1
TIME 0000000e 1444727202.8,1
TIME 0000000e 1444727207.8,1
TIME 0000000e 1444727212.8,1
TIME 0000000e 1444727217.8,1
TIME 0000000e 1444727222.8,1
TIME 0000000e 1444727227.8,1
TIME 0000000e 1444727232.8,1
TIME 0000000e 1444727237.8,1
TIME 0000000e 1444727242.8,1
TIME 0000000e 1444727247.8,1
TIME 0000000e 1444727252.8,1
TIME 0000000e 1444727257.8,1
TIME 0000000e 1444727262.8,1
TIME 0000000e 1444727267.8,1
TIME 0000000e 1444727272.8,1
TIME 0000000e 1444727277.8,1
TIME 0000000e 1444727282.8,1
TIME 0000000e 1444727287.8,1
TIME 0000000e 1444727292.8,1
TIME 0000000e 1444727297.8,1
TIME 0000000e 1444727302.8,1
TIME 0000000e 1444727307.8,1
TIME 0000000e 1444727312.8,1
TIME 0000000e 1444727317.8,1
TIME 0000000e 1444727322.8,1
TIME 0000000e 1444727327.8,1
TIME 0000000e 1444727332.8,1
TIME 0000000e 1444727337.8,1
TIME 0000000e 1444727342.8,1
TIME 0000000e 1444727347.8,1
TIME 0000000e 1444727352.8,1
TIME 0000000e 1444727357.8,1
TIME 0000000e 1444727362.8,1
TIME 0000000e 1444727367.8,1
TIME 0000000e 1444727372.8,1
TIME 0000000e 1444727377.8,1
TIME 0000000e 1444727382.8,1
TIME 0000000e 1444727387.8,1
TIME 0000000e 1444727392.8,1
TIME 0000000e 1444727397.8,1
TIME 0000000e 1444727402.8,1
TIME 0000000e 1444727407.8,1
TIME 0000000e 1444727412.8,1
TIME 0000000e 1444727417.8,1
TIME 0000000e 1444727422.8,1
TIME 0000000e 1444727427.8,1
TIME 0000000e 1444727432.8,1
TIME 0000000e 1444727437.8,1
TIME 0000000e 1444727442.8,1
TIME 0000000e 1444727447.8,1
TIME 0000000e 1444727452.8,1
TIME 0000000e 1444727457.8,1
TIME 0000000e 1444727462.8,1
TIME 0000000e 1444727467.8,1
TIME 0000000e 1444727472.8,1
TIME 0000000e 1444727477.8,1
TIME 0000000e 1444727482.8,1
TIME 0000000e 1444727487.8,1
TIME 0000000e 1444727492.8,1
TIME 0000000e 1444727497.8,1
TIME 0000000e 1444727502.8,1
TIME 0000000e 1444727507.8,1
TIME 0000000e 1444727512.8,1
TIME 0000000e 1444727517.8,1
TIME 0000000e 1444727522.8,1
TIME 0000000e 1444727527.8,1
TIME 0000000e 1444727532.8,1
TIME 0000000e 1444727537.8,1
TIME 0000000e 1444727542.8,1
TIME 0000000e 1444727547.8,1
TIME 0000000e 1444727552.8,1
TIME 0000000e 1444727557.8,1
TIME 0000000e 1444727562.8,1
TIME 0000000e 1444727567.8,1
TIME 0000000e 1444727572.8,1
TIME 0000000e 1444727577.8,1
TIME 0000000e 1444727582.8,1
TIME 0000000e 1444727587.8,1
TIME 0000000e 1444727592.8,1
TIME 0000000e 1444727597.8,1
TIME 0000000e 1444727602.8,1
TIME 0000000e 1444727607.8,1
TIME 0000000e 1444727612.8,1
TIME 0000000e 1444727617.8,1
TIME 0000000e 1444727622.8,1
TIME 0000000e 1444727627.8,1
TIME 0000000e 1444727632.8,1
TIME 0000000e 1444727637.8,1
TIME 0000000e 1444727642.8,1
TIME 0000000e 1444727647.8,1
TIME 0000000e 1444727652.8,1
TIME 0000000e 1444727657.8,1
TIME 0000000e 1444727662.8,1
TIME 0000000e 1444727667.8,1
TIME 0000000e 1444727672.8,1
TIME 0000000e 1444727677.8,1
TIME 0000000e 1444727682.8,1
TIME 0000000e 1444727687.8,1
TIME 0000000e 1444727692.8,1
TIME 0000000e 1444727697.8,1
TIME 0000000e 1444727702.8,1
TIME 0000000e 1444727707.8,1
TIME 0000000e 1444727712.8,1
TIME 0000000e 1444727717.8,1
TIME 0000000e 1444727722.8,1
TIME 0000000e 1444727722.9,1
TIME 0000000e 1444727727.8,1
TIME 0000000e 1444727732.8,1
TIME 0000000e 1444727737.8,1
TIME 0000000e 1444727742.8,1
TIME 0000000e 1444727747.8,1
TIME 0000000e 1444727752.8,1
TIME 0000000e 1444727757.8,1
TIME 0000000e 1444727762.8,1
TIME 0000000e 1444727767.8,1
TIME 0000000e 1444727772.8,1
TIME 0000000e 1444727777.8,1
TIME 0000000e 1444727782.8,1
TIME 0000000e 1444727782.9,1
TIME 0000000e 1444727787.8,1
TIME 0000000e 1444727792.8,1
TIME 0000000e 1444727797.8,1
TIME 0000000e 1444727802.8,1
TIME 0000000e 1444727807.8,1
TIME 0000000e 1444727812.8,1
TIME 0000000e 1444727817.8,1
TIME 0000000e 1444727822.8,1
TIME 0000000e 1444727827.8,1
TIME 0000000e 1444727832.8,1
TIME 0000000e 1444727837.8,1
TIME 0000000e 1444727842.8,1
TIME 0000000e 1444727847.8,1
TIME 0000000e 1444727852.8,1
TIME 0000000e 1444727857.8,1
TIME 0000000e 1444727862.8,1
TIME 0000000e 1444727867.8,1
TIME 0000000e 1444727872.8,1
TIME 0000000e 1444727877.8,1
TIME 0000000e 1444727882.8,1
TIME 0000000e 1444727887.8,1
TIME 0000000e 1444727892.8,1
TIME 0000000e 1444727897.8,1
TIME 0000000e 1444727902.8,1
TIME 0000000e 1444727902.9,1
TIME 0000000e 1444727907.8,1
TIME 0000000e 1444727912.8,1
TIME 0000000e 1444727917.8,1
TIME 0000000e 1444727922.8,1
TIME 0000000e 1444727927.8,1
TIME 0000000e 1444727932.8,1
TIME 0000000e 1444727937.8,1
TIME 0000000e 1444727942.8,1
TIME 0000000e 1444727947.8,1
TIME 0000000e 1444727952.8,1
TIME 0000000e 1444727957.8,1
TIME 0000000e 1444727962.8,1
TIME 0000000e 1444727967.8,1
TIME 0000000e 1444727972.8,1
TIME 0000000e 1444727977.8,1
TIME 0000000e 1444727982.8,1
TIME 0000000e 1444727987.8,1
TIME 0000000e 1444727992.8,1
TIME 0000000e 1444727997.8,1
TIME 0000000e 1444728002.8,1
TIME 0000000e 1444728007.8,1
TIME 0000000e 1444728012.8,1
TIME 0000000e 1444728017.8,1
TIME 0000000e 1444728022.8,1
TIME 0000000e 1444728027.8,1
TIME 0000000e 1444728032.8,1
TIME 0000000e 1444728037.8,1
TIME 0000000e 1444728042.8,1
TIME 0000000e 1444728047.8,1
TIME 0000000e 1444728052.8,1
TIME 0000000e 1444728057.8,1
TIME 0000000e 1444728062.8,1
TIME 0000000e 1444728067.8,1
TIME 0000000e 1444728072.8,1
TIME 0000000e 1444728077.8,1
TIME 0000000e 1444728082.8,1
TIME 0000000e 1444728087.8,1
TIME 0000000e 1444728092.8,1
TIME 0000000e 1444728097.8,1
TIME 0000000e 1444728102.8,1
TIME 0000000e 1444728107.8,1
TIME 0000000e 1444728112.8,1
TIME 0000000e 1444728117.8,1
TIME 0000000e 1444728122.8,1
TIME 0000000e 1444728127.8,1
TIME 0000000e 1444728127.9,1
TIME 0000000e 1444728132.8,1
TIME 0000000e 1444728137.8,1
TIME 0000000e 1444728142.8,1
TIME 0000000e 1444728147.8,1
TIME 0000000e 1444728152.8,1
TIME 0000000e 1444728152.9,1
TIME 0000000e 1444728157.8,1
TIME 0000000e 1444728162.8,1
TIME 0000000e 1444728162.9,1
TIME 0000000e 1444728167.8,1
TIME 0000000e 1444728172.8,1
TIME 0000000e 1444728177.8,1
TIME 0000000e 1444728182.8,1
TIME 0000000e 1444728187.8,1
TIME 0000000e 1444728192.8,1
TIME 0000000e 1444728197.8,1
TIME 0000000e 1444728202.8,1
TIME 0000000e 1444728207.8,1
TIME 0000000e 1444728212.8,1
TIME 0000000e 1444728217.8,1
TIME 0000000e 1444728222.8,1
TIME 0000000e 1444728227.8,1
TIME 0000000e 1444728232.8,1
TIME 0000000e 1444728237.8,1
TIME 0000000e 1444728242.8,1
TIME 0000000e 1444728247.8,1
TIME 0000000e 1444728252.8,1
TIME 0000000e 1444728257.8,1
TIME 0000000e 1444728262.8,1
TIME 0000000e 1444728267.8,1
TIME 0000000e 1444728272.8,1
TIME 0000000e 1444728277.8,1
TIME 0000000e 1444728282.8,1
TIME 0000000e 1444728287.8,1
TIME 0000000e 1444728292.8,1
TIME 0000000e 1444728297.8,1
TIME 0000000e 1444728302.8,1
TIME 0000000e 1444728307.8,1
TIME 0000000e 1444728312.8,1
TIME 0000000e 1444728317.8,1
TIME 0000000e 1444728322.8,1
TIME 0000000e 1444728327.8,1
TIME 0000000e 1444728332.8,1
TIME 0000000e 1444728337.8,1
TIME 0000000e 1444728342.8,1
TIME 0000000e 1444728347.8,1
TIME 0000000e 1444728352.8,1
TIME 0000000e 1444728357.8,1
TIME 0000000e 1444728362.8,1
TIME 0000000e 1444728367.8,1
TIME 0000000e 1444728372.8,1
TIME 0000000e 1444728377.8,1
TIME 0000000e 1444728382.8,1
TIME 0000000e 1444728387.8,1
TIME 0000000e 1444728392.8,1
TIME 0000000e 1444728397.8,1
TIME 0000000e 1444728402.8,1
TIME 0000000e 1444728407.8,1
TIME 0000000e 1444728412.8,1
TIME 0000000e 1444728417.8,1
TIME 0000000e 1444728422.8,1
TIME 0000000e 1444728427.8,1
TIME 0000000e 1444728432.8,1
TIME 0000000e 1444728436.7,1
DISC 0000003c 6795184426424404343:6875781622866446711 from 127.0.0.1:57370
DISC 00000027 6204981785871021833:3955614762 from R01
DISC 00000036 6204981785871021833:3482309487 from internal:R:control
DISC 00000027 6204981785871021833:1865318693 from S01
