VERS 00000001 4
HEAD 00000e97 <?xml version="1.0"?>
<?xml-stylesheet type="text/xsl" href="/resources/transform.xslt"?><header><componentName>correlator</componentName><version>5.3.0.0.247085</version><build>rel/5.3.0.x@247085</build><buildPlatform>amd64-win</buildPlatform><platform>Windows Server 2008 R2 (Service Pack 1)</platform><cputype>AuthenticAMD family 15 model 8 stepping 0 Six-Core AMD Opteron(tm) Processor 2427</cputype><cpus>4</cpus><javaEnabled>true</javaEnabled><replayLogMode>inputLog</replayLogMode><args><arg>C:\SoftwareAG\Apama 5.3\bin\correlator.exe</arg><arg>--logQueueSizePeriod</arg><arg>0</arg><arg>-l</arg><arg>C:\SoftwareAG\ApamaWork_5.3\license\license.txt</arg><arg>--port</arg><arg>15903</arg><arg>--loglevel</arg><arg>INFO</arg><arg>--name</arg><arg>Apama Studio Correlator for Prosoft_IW2015(Prosoft_IW2015:Default Correlator)</arg><arg>-j</arg><arg>--jmsConfig</arg><arg>C:\SoftwareAG\ApamaWork_5.3\studio_workspace\.metadata\.plugins\org.eclipse.core.resources\.projects\Prosoft_IW2015\com.apama.text\JMS_Correlator-Integrated_Adapter</arg><arg>--inputLog</arg><arg>logs/Default_Correlator_${START_TIME}_${ID}.input.log</arg></args><environment><variable>ALLUSERSPROFILE=C:\ProgramData</variable><variable>APAMA_HOME=C:\SoftwareAG\Apama 5.3</variable><variable>APAMA_WORK=C:\SoftwareAG\ApamaWork_5.3</variable><variable>APPDATA=C:\Users\Administrator\AppData\Roaming</variable><variable>CLIENTNAME=PTGHP450-YD</variable><variable>COMMONPROGRAMFILES=C:\Program Files\Common Files</variable><variable>COMMONPROGRAMFILES(X86)=C:\Program Files (x86)\Common Files</variable><variable>COMMONPROGRAMW6432=C:\Program Files\Common Files</variable><variable>COMPUTERNAME=WMSERVER11</variable><variable>COMSPEC=C:\Windows\system32\cmd.exe</variable><variable>FP_NO_HOST_CHECK=NO</variable><variable>HOMEDRIVE=C:</variable><variable>HOMEPATH=\Users\Administrator</variable><variable>LOCALAPPDATA=C:\Users\Administrator\AppData\Local</variable><variable>LOGONSERVER=\\WMSERVER11</variable><variable>NUMBER_OF_PROCESSORS=4</variable><variable>OS=Windows_NT</variable><variable>PATH=C:\SoftwareAG\Apama 5.3\third_party\jre\bin\server;C:\SoftwareAG\Apama 5.3\third_party\jre\bin;C:\SoftwareAG\Apama 5.3\third_party\jre\lib\amd64\server;C:\SoftwareAG\Apama 5.3\third_party\jre\lib\amd64;C:\SoftwareAG\Apama 5.3\bin;C:\ProgramData\Oracle\Java\javapath;C:\Windows\system32;C:\Windows;C:\Windows\System32\Wbem;C:\Windows\System32\WindowsPowerShell\v1.0\</variable><variable>PATHEXT=.COM;.EXE;.BAT;.CMD;.VBS;.VBE;.JS;.JSE;.WSF;.WSH;.MSC</variable><variable>PROCESSOR_ARCHITECTURE=AMD64</variable><variable>PROCESSOR_IDENTIFIER=AMD64 Family 16 Model 8 Stepping 0, AuthenticAMD</variable><variable>PROCESSOR_LEVEL=16</variable><variable>PROCESSOR_REVISION=0800</variable><variable>PROGRAMDATA=C:\ProgramData</variable><variable>PROGRAMFILES=C:\Program Files</variable><variable>PROGRAMFILES(X86)=C:\Program Files (x86)</variable><variable>PROGRAMW6432=C:\Program Files</variable><variable>PROMPT=$P$G</variable><variable>PSMODULEPATH=C:\Windows\system32\WindowsPowerShell\v1.0\Modules\</variable><variable>PUBLIC=C:\Users\Public</variable><variable>SESSIONNAME=RDP-Tcp#0</variable><variable>SYSTEMDRIVE=C:</variable><variable>SYSTEMROOT=C:\Windows</variable><variable>TEMP=C:\Users\ADMINI~1\AppData\Local\Temp\2</variable><variable>TMP=C:\Users\ADMINI~1\AppData\Local\Temp\2</variable><variable>USERDOMAIN=WMSERVER11</variable><variable>USERNAME=Administrator</variable><variable>USERPROFILE=C:\Users\Administrator</variable><variable>WINDIR=C:\Windows</variable><variable>WINDOWS_TRACING_FLAGS=3</variable><variable>WINDOWS_TRACING_LOGFILE=C:\BVTBin\Tests\installpackage\csilogfile.log</variable></environment><version>5.3.0.0.247085</version></header>
RAND 0000000a 1634074408
CONN 00000027 6205124318637356809:3955614762 from R01
CONN 00000036 6205124318637356809:3482309487 from internal:R:control
CONN 00000027 6205124318637356809:1865318693 from S01
CONN 0000003c 6795184426424404343:7018313969602726263 from 127.0.0.1:59476
CONN 0000003c 6795184426424404343:7018315867978467703 from 127.0.0.1:59475
CONN 0000003c 6795184426424404343:7018315910928271735 from 127.0.0.1:59481
TIME 0000000e 1444743090.6,1
MONF 00004657 package com.apama.dataview;

/*
 * $Copyright(c) 2007, 2008 Progress Software Corporation (PSC). All rights reserved.$
 * $Copyright (c) 2013-2014 Software AG, Darmstadt, Germany and/or Software AG USA Inc., Reston, VA, USA, and/or its Subsidiaries and or/its Affiliates and/or their licensors.$
 * Use, reproduction, transfer, publication or disclosure is prohibited except as specifically provided for in your License Agreement with Software AG
 */


/* Apama DataViewService API.
 *
 * This service enables MonitorScript or JMon applications to expose a simple 
 * read-only "DataView" interface. DataViews may be viewed using Apama Dashboard 
 * Studio in a similar way to Scenarios.
 *
 * Several implementations of this interface will exist. 
 * Each implementation is in a separate file - inject the one you wish to use.
 *   e.g. DataViewService_Impl_Dict.mon
 *
 * Route vs. Emit
 * The standard implementations of the DataViewService will always ROUTE 
 * any com.apama.dataview.* events, with the expectation that applications
 * using the service are co-located in the same correlator as the service.
 * If your architecture requires the client application to be in a separate 
 * correlator to the DataView service, then two "emitter" monitors are 
 * available.
 * DataViewService_ServiceEmitter.mon  would be injected into the same 
 * correlator as the DataView service after injecting the DataViewService 
 * interface but before injecting the implementation.
 * DataViewService_ApplicationEmitter.mon  would be injected into the same 
 * correlator as the client application after injecting the DataViewService 
 * interface but before injecting the client application.
 * 
 *
 * Notes:
 * 
 * 1) Every event has an initial field called msgId. Clients may choose to put 
 *    some identifier in this field when sending messages to the service. Any 
 *    event routed by the service in response will contain the same identifier.
 *
 * 2) Most events contain a field called "dvName". This string 
 *    uniquely identifies a DataView inside the correlator. 
 *
 * 3) Every event has a final field called extraParams that is a string:string
 *    dictionary. Some implementations may choose to use this field. It provides
 *    a way of future-proofing the interface to a certain extent.
 *
 * $Revision: 221069 $
 */





/* ==========================================================================
 * ==========================================================================
 * Events to send to the DataViewService to manage the DataView schemas
 * ==========================================================================
 * ========================================================================== */


/** Define a new DataView type.
 *
 * Expect either a DataViewDefinition or a DataViewException in response.
 *
 * See also: DataViewDefinition() DataViewException(), DataViewAddItem()
 *
 * Direction: From the customer Monitor to the DataViewService.
 */
event DataViewAddDefinition {
	/** Optional application-defined message identifier used to correlate 
		requests and responses. */
	string msgId;
	/** The name that uniquely identifies this DataView (e.g. DataView_XXX) */
	string dvName;
	/** The display name of the DataView (e.g. "XXX manager") */
	string dvDisplayName;
	/** Optional field containing a description of this DataView 
		(e.g. "This DataView exposes XXX objects"). */
	string dvDescription;
	/** Specifies the names of each field exposed by the DataView. */
	sequence<string> fieldNames;
	/** Specifies the types corresponding to each field in the fieldNames sequence. 
		Supported types are: string, float, integer, boolean. */
	sequence<string> fieldTypes;
	/** Optional set of field names whose values in an Item are to be combined 
		to make a unique key that can be used instead of the dvItemId field of 
		DataViewDeleteItem, DataViewUpdateItem, and DataViewUpdateDelta events.
 	*/
	sequence<string> keyFields;
	/** Optional dictionary of parameters for future extensibility; 
		DataView implementation-specific parameters may also be stored here. */
	dictionary<string, string> extraParams;
}


/* Remove an existing DataView type.
 *
 * Direction: From the customer Monitor to the DataViewService.
 *
 * Response: DataViewUnloaded()
 */
event DataViewDeleteDefinition {
	string msgId;                            // [OPTIONAL] A messageId that applications may choose to use to identify "responses".
	string dvName;                           // The DataView Name (e.g. conventionally DataView_XXX)
	dictionary<string, string> extraParams;  // [OPTIONAL] Some implementations may choose to make use of this field.
}


/* Request helper dictionary to facilitate sequence position lookup
 *    by field name.
 *
 * See also: DataViewFieldLookup()
 *
 * Direction: From the customer Monitor to the DataViewService.
 *
 * Response: DataViewFieldLookup()
 */
event DataViewGetFieldLookup {
	string msgId;                            // [OPTIONAL] A messageId that applications may choose to use to identify "responses".
	string dvName;                           // The DataView Name (e.g. conventionally DataView_XXX)
	dictionary<string, string> extraParams;  // [OPTIONAL] Some implementations may choose to make use of this field.
}



/* ==========================================================================
 * ==========================================================================
 * Events to send to the DataViewService to manage individual DataView Items
 * ==========================================================================
 * ========================================================================== */


/* Request that a new Item is added to a specific DataView.
*
* See also: DataViewItem()
*
* Direction: From the customer Monitor to the DataViewService.
*/
event DataViewAddItem {
	string msgId;                            // [OPTIONAL] A messageId that applications may choose to use to identify "responses".
	string dvName;                           // the unique name of the DataView
	string owner;                            // the owner (user) of the Item.
	float timeStamp;                         // the timestamp of the initial update (seconds since epoch). If the value given is -1.0 then the service will populate it using correlator currentTime.
	sequence<string> fieldValues;            // complete sequence of field values in string form
	dictionary<string, string> extraParams;  // [OPTIONAL] Some implementations may choose to make use of this field.
}


/* Request that a new Item is added to a specific DataView if it does not already exist, 
* or is updated when it does exist. This will ONLY work when keyFields are used.
* Attempts to change the owner of an existing item will be rejected with a DataViewItemException.
*
* See also: DataViewItem()
*
* Direction: From the customer Monitor to the DataViewService.
*/
event DataViewAddOrUpdateItem {
	string msgId;                            // [OPTIONAL] A messageId that applications may choose to use to identify "responses".
	string dvName;                           // the unique name of the DataView
	string owner;                            // the owner (user) of the Item - ONLY used for new items.
	float timeStamp;                         // the timestamp of the initial update (seconds since epoch). If the value given is -1.0 then the service will populate it using correlator currentTime.
	sequence<string> fieldValues;            // complete sequence of field values in string form
	dictionary<string, string> extraParams;  // [OPTIONAL] Some implementations may choose to make use of this field.
}


/* Contains updated DataView Item fields.
 * Use this to update the fields.
 *
 * Direction: From the customer Monitor to the DataViewService.
 *
 */
event DataViewUpdateItem { 
	string msgId;                            // [OPTIONAL] A messageId that applications may choose to use to identify "responses".
	string dvName;                           // the unique name of the DataView
	integer dvItemId;                        // the ID of the Item within the DataView (may be -1 if using keyFields instead)
	float timeStamp;                         // the timestamp of the update (seconds since epoch). If the value given is -1.0 then the service will populate it using correlator currentTime.
	sequence<string> fieldValues;            // sequence of field values in string form
	dictionary<string, string> extraParams;  // [OPTIONAL] Some implementations may choose to make use of this field.
}


/* Contains updated DataView Item fields.
 * Use this to update the fields.
 *
 * Direction: From the customer Monitor to the DataViewService.
 *
 */
event DataViewUpdateItemDelta { 
	string msgId;                            // [OPTIONAL] A messageId that applications may choose to use to identify "responses".
	string dvName;                           // the unique name of the DataView
	integer dvItemId;                        // the ID of the Item within the DataView (may be -1 if using keyFields instead)
	float timeStamp;                         // the timestamp of the update (seconds since epoch). If the value given is -1.0 then the service will populate it using correlator currentTime.
	dictionary<integer,string> fieldValues;  // values to be updated. Dictionary Key is index into fields sequence, Value is new field value in sequence. 
	                                         // If not using dvItemId, then the dictionary MUST contain the key values (even though they have not changed)
	dictionary<string, string> extraParams;  // [OPTIONAL] Some implementations may choose to make use of this field.
}


/* Request that a specific Item within a specific DataView is deleted.
 *
 * See also: DataViewItemDeleted()
 *
 * Direction: From the customer Monitor to the DataViewService.
 */
event DataViewDeleteItem {
	string msgId;                            // [OPTIONAL] A messageId that applications may choose to use to identify "responses".
	string dvName;                           // the unique name of the DataView
	integer dvItemId;                        // the ID of the Item within the DataView (may be -1 if using keyFields instead)
	sequence<string> keyFields;              // [OPTIONAL] sequence of ONLY key field values (if not using the dvItemId)
	dictionary<string, string> extraParams;  // [OPTIONAL] Some implementations may choose to make use of this field.
}


/* Request that all Items within a specific DataView are deleted.
 *
 * See also: DataViewAllItemsDeleted()
 *
 * Direction: From the customer Monitor to the DataViewService.
 */
event DataViewDeleteAllItems {
	string msgId;                            // [OPTIONAL] A messageId that applications may choose to use to identify "responses".
	string dvName;                           // the unique name of the DataView
	dictionary<string, string> extraParams;  // [OPTIONAL] Some implementations may choose to make use of this field.
}


/* ==========================================================================
 * ==========================================================================
 * Events to that are callbacks from DatavViewService
 * ==========================================================================
 * ========================================================================== */


/** Confirmation that a specific DataView definition has been added.
 *
 * For information on the meaning of each field, see DataViewAddDefinition()
 *
 * Direction: From the DataViewService to the customer Monitor.
 */
event DataViewDefinition {
	string msgId;
	string dvName;
	string dvDisplayName;
	string dvDescription;
	sequence<string> fieldNames;
	sequence<string> fieldTypes;
	sequence<string> keyFields;
	dictionary<string, string> extraParams;
}


/* Indicates that a specific DataView definition is being unloaded.
 *
 * Direction: From the DataViewService to the customer Monitor.
 */
event DataViewDefinitionDeleted { 
	string msgId;                            // [OPTIONAL] A messageId that applications may choose to use to identify "responses".
	string dvName;                           // the unique name of the DataView
	dictionary<string, string> extraParams;  // [OPTIONAL] Some implementations may choose to make use of this field.
}


/* Notifies all interested clients that a new Item has been added to a specific 
 * DataView. 
 * The event provides the unique itemID, owner (user), and initial values for 
 * all fields.
 *
 * See also: DataViewAddItem()
 *
 * Direction: From the DataViewService to the customer Monitor.
 *
 */
event DataViewItem { 
	string msgId;                            // [OPTIONAL] A messageId that applications may choose to use to identify "responses".
	string dvName;                           // the unique name of the DataView
	integer dvItemId;                        // the ID of the Item within the DataView
	string owner;                            // the owner (user) of the Item.
	sequence<string> fieldValues;            // sequence of field values in string form
	dictionary<string, string> extraParams;  // [OPTIONAL] Some implementations may choose to make use of this field.
}


/* Notifies all interested clients that a specific Item within a specific 
 * DataView has been deleted.
 *
 * See also: DataViewDeleteItem()
 *
 * Direction: From the DataViewService to the customer Monitor.
 *
 */
event DataViewItemDeleted {
	string msgId;                            // [OPTIONAL] A messageId that applications may choose to use to identify "responses".
	string dvName;                           // the unique name of the DataView
	integer dvItemId;                        // the ID of the Item within the DataView
	sequence<string> keyFields;              // sequence of ONLY key field values (for those not using the dvItemId)
	dictionary<string, string> extraParams;  // [OPTIONAL] Some implementations may choose to make use of this field.
}


/* Notifies all interested clients that all Items within a specific 
 * DataView have been deleted.
 *
 * See also: DataViewDeleteAllItems()
 *
 * Direction: From the DataViewService to the customer Monitor.
 *
 */
event DataViewAllItemsDeleted {
	string msgId;                            // [OPTIONAL] A messageId that applications may choose to use to identify "responses".
	string dvName;                           // the unique name of the DataView
	dictionary<string, string> extraParams;  // [OPTIONAL] Some implementations may choose to make use of this field.
}


/* The helper dictionary to facilitate sequence position lookup
 *    by field name.
 *
 * See also: DataViewGetFieldLookup()
 *
 * Direction: From the DataViewService to the customer Monitor.
 */
event DataViewFieldLookup {
	string msgId;                            // [OPTIONAL] A messageId that applications may choose to use to identify "responses".
	string dvName;                           // The DataView Name (e.g. conventionally DataView_XXX)
	dictionary <string, integer> fields;     // A map of fieldName:fieldIndex
	dictionary<string, string> extraParams;  // [OPTIONAL] Some implementations may choose to make use of this field.
}


/* Indicates that an exception occurred within the DataViewService, and indicates 
* the name of the specific DataView.
*
* Direction: From the DataViewService to the customer Monitor.
*/
event DataViewException {
	string msgId;                            // [OPTIONAL] A messageId that applications may choose to use to identify "responses".
	string dvName;                           // the unique name of the DataView
	wildcard string message;                 // The message in the exception. This is designed to be human readable, and may change between implementations/versions, hence the wildcard.
	dictionary<string, string> extraParams;  // [OPTIONAL] Some implementations may choose to make use of this field.
}

/* Indicates that an exception occurred within the DataViewService, and indicates 
* the name of the specific DataView, and the Id of the specific Item.
*
* Direction: From the DataViewService to the customer Monitor.
*/
event DataViewItemException {
	string msgId;                            // [OPTIONAL] A messageId that applications may choose to use to identify "responses".
	string dvName;                           // the unique name of the DataView
	integer dvItemId;                        // the ID of the Item within the DataView
	wildcard string message;                 // The message in the exception. This is designed to be human readable, and may change between implementations/versions, hence the wildcard.
	dictionary<string, string> extraParams;  // [OPTIONAL] Some implementations may choose to make use of this field.
}


/* Indicates that the DataView service is being unloaded.
 *
 * Direction: From the DataViewService to the customer Monitor.
 */
event DataViewServiceUnloaded { 
	dictionary<string, string> extraParams;  // [OPTIONAL] Some implementations may choose to make use of this field.
}


monitor DataViewService_Interface {
	// MetaData relating to the interface
	dictionary<string,string> interfaceMetaData := {
		"interface.package"     :"com.apama.dataview",
		"interface.name"        :"DataViewService_Interface",
		"interface.fileName"    :"DataViewService_Interface.mon",
		"interface.vendor"      :"Apama",
		"interface.version"     :"5.3.0.0.247085",
		"interface.fullVersion" :"rel/5.3.0.x@247085",
		"interface.language"    :"MonitorScript"
	};

	action onload {
		log "DataViewService interface loaded. MetaData: "+interfaceMetaData.toString() at INFO;
	}
}

 0000003e C:\SoftwareAG\Apama 5.3\monitors\DataViewService_Interface.mon
TIME 0000000e 1444743090.7,1
MONF 00012519 package com.apama.scenario;

/**
 * This file contains the shared event definitions that are generic across 
 * all Scenarios.  
 *
 * WARNING: 
 *    The event definitions contained in this file form an internal protocol 
 *    and may change between software releases.
 *
 * Notes:
 * 1) The Event definitions contained in this file MUST be considered
 *    as an internal implementation of the communications protocol
 *    between the Apama client API and an Apama server.  As such
 *    these event definitions MUST NOT be considered "stable" and are 
 *    subject to change in any future software release.
 *
 *    The ONLY supported public APIs to the Scenario Service are the 
 *    Java client API (in the com.apama.services.scenario package) and the 
 *    .NET client API (in the Apama.Services.Scenario namespace).  
 *    Customers should not attempt to interface at the event or 
 *    EPL layer. Some events have been changed over time (as 
 *    noted here).
 *
 * 2) Most events now contain an initial field called "scenarioId". This string 
 *    uniquely identifies a scenario inside the correlator, and is used as 
 *    the package name, in several events, and for making up a part of the 
 *    data and control channel names.
 *
 * 3) Events that are intended to be used in a request-response pattern contain
 *    a "messageId" field.  The value of this field must be copied from the 
 *    request event into the response event. The mechanism allows clients to 
 *    match up request-response pairs.
 *
 *
 * $Copyright(c) 2005-2011 Progress Software Corporation (PSC). All rights reserved.$
 * $Copyright (c) 2013-2014 Software AG, Darmstadt, Germany and/or Software AG USA Inc., Reston, VA, USA, and/or its Subsidiaries and or/its Affiliates and/or their licensors.$
 * Use, reproduction, transfer, publication or disclosure is prohibited except as specifically provided for in your License Agreement with Software AG
 *
 * $Revision: 242755 $
 */

/**
 * Request that a new instance of a specific scenario is created.
 *
 * See also: Created(), Acknowledge()
 *
 * Direction: From the client to the correlator.
 *
 * Response: Acknowledge()
 */
event Create {
	string scenarioId;                   // the unique name of the scenario
	integer messageId;                   // the unique message ID (for request-response matching)
	string owner;                        // the owner (user) of the instance.
	sequence<string> inputFieldValues;   // sequence of INPUT field values in string form
}

/**
 * Notifies all interested clients that a new instance of a specific 
 * scenario has been created. 
 * The event provides the owner (user), initial state, and initial values for 
 * all input fields and all output fields.
 *
 * See also: Create()
 *
 * Direction: From the correlator to the client.
 *
 * Channel: <scenarioId>.Data and <scenarioId>.Data.Raw
 */
event Created { 
	string scenarioId;                   // the unique name of the scenario
	integer messageId;                   // the unique message ID (for request-response matching)
	integer scenarioInstanceId;          // the ID of the scenario instance
	string owner;                        // the owner (user) of the instance.
	string state;                        // the initial state of the instance.
	sequence<string> inputFieldValues;   // sequence of INPUT field values in string form
	sequence<string> outputFieldValues;  // sequence of OUTPUT field values in string form
}


/**
 * Notifies the interested clients of child scenarios created from
 * a parent scenario.
 *
 * Direction: Internal in the correlator
 *
 * Channel: <none>
 */
event ParentChildRelationship {
	string parentScenarioId;
	integer parentScenarioInstanceId;
	string childScenarioId;
	integer childScenarioInstanceId;
}


/**
 * Request that a specific instance of a specific scenario is edited (the input 
 * field values are changed).
 *
 * See also: Edited(), Acknowledge()
 *
 * Direction: From the client to the correlator.
 *
 * Response: Acknowledge()
 */
event Edit { 
	string scenarioId;                   // the unique name of the scenario
	integer messageId;                   // the unique message ID (for request-response matching)
	integer scenarioInstanceId;          // the ID of the scenario instance
	sequence<string> inputFieldValues;   // sequence of INPUT field values in string form
}


/**
 * Notifies all interested clients that a specific instance of a specific 
 * scenario has been edited (the input field values have changed).
 *
 * See also: Edit()
 *
 * Direction: From the correlator to the client.
 *
 * Channel: <scenarioId>.Data and <scenarioId>.Data.Raw
 */
event Edited { 
	string scenarioId;                   // the unique name of the scenario
	integer messageId;                   // the unique message ID (for request-response matching)
	integer scenarioInstanceId;          // the ID of the scenario instance
	sequence<string> inputFieldValues;   // sequence of INPUT field values in string form
	sequence<string> outputFieldValues;  // sequence of OUTPUT field values in string form
}


/**
 * Request that a specific instance of a specific scenario is deleted.
 *
 * See also: Deleted(), Acknowledge()
 *
 * Direction: From the client to the correlator.
 *
 * Response: Acknowledge()
 */
event Delete {
	string scenarioId;                   // the unique name of the scenario
	integer messageId;                   // the unique message ID (for request-response matching)
	integer scenarioInstanceId;          // the ID of the scenario instance
}


/**
 * Notifies all interested clients that a specific instance of a specific 
 * scenario has been deleted.
 *
 * See also: Delete()
 *
 * Direction: From the correlator to the client.
 *
 * Channel: <scenarioId>.Data and <scenarioId>.Data.Raw
 */
event Deleted {
	string scenarioId;                   // the unique name of the scenario
	integer messageId;                   // the unique message ID (for request-response matching)
	integer scenarioInstanceId;          // the ID of the scenario instance
}


/**
 * Indicates that a specific instance of a specific scenario has died.
 * This is sent as a result of a scenario instance use of MonitorScript ondie.
 * This occurs for any of deleting a running scenario, a scenario failing, or 
 * entering the end state.
 *
 * Direction: From the correlator to the client.
 *
 * Channel: <scenarioId>.Data and <scenarioId>.Data.Raw
 */
event InstanceDied {
	string scenarioId;                   // the unique name of the scenario
	integer scenarioInstanceId;          // the ID of the scenario instance
}


/**
 * Contains updated scenario instance output fields.
 * Note that this is the ONLY event type that is sendted on the 
 * "<scenarioId>.Data" channel.
 *
 * Direction: From the correlator to the client.
 *
 * Channel: <scenarioId>.Data and <scenarioId>.Data.Raw
 */
event Update { 
	string scenarioId;                   // the unique name of the scenario
	integer scenarioInstanceId;          // the ID of the scenario instance
	float timeStamp;                     // the time of the update (seconds since epoch)
	sequence<string> outputFieldValues;  // sequence of OUTPUT field values in string form
}


/**
 * A general Acknowledgement event that is the "response" to various "request"
 * events such as Create, Edit, Delete.
 *
 * Direction: From the correlator to the client.
 *
 * Channel: <scenarioId>.Control
 */
event Acknowledge { 
	string scenarioId;                   // the unique name of the scenario
	integer messageId;                   // the unique message ID (for request-response matching)
	integer scenarioInstanceId;          // the id of the scenario instance
	boolean success;                     // boolean indication of success
	sequence<string> outputFieldValues;  // sequence of the OUTPUT field values in string form, 
	                                     //   or an empty sequence if success = false
}


/**
 * Indicates that a specific instance of a specific scenario has changed 
 * state, where valid states include "ENDED", "FAILED", "RUNNING".
 *
 * Direction: From the correlator to the client.
 *
 * Channel: <scenarioId>.Data and <scenarioId>.Data.Raw
 */
event StateChange { 
	string scenarioId;                   // the unique name of the scenario.
	integer scenarioInstanceId;          // the ID of the scenario instance.
	string state;                        // the new state.
}


/**
 * Request that each scenario loaded in the correlator send its meta
 * information out on the supplied channel. When all scenarios have
 * sent out this information, a final RequestScenariosDone event will
 * be sent on the same channel.
 *
 * As soon as this event is received, a RequestScenariosAck will be
 * sent on the same channel so client can stop resending the RequestScenarios
 * event.
 *
 * See also: Scenario, RequestScenariosDone, RequestScenariosAck
 *
 * Direction: From the client to the correlator.
 *
 * Response: Scenario() from each loaded scenario.
 */
event RequestScenarios { 
	// renamed for clarity - was Request
	string channel;                      // Name of the private response channel.
}


/**
 * This is a simple marker event that is sent by the correlator to indicate 
 * that it has finished sending all of the Scenario events in response
 * to a RequestScenarios event.
 * 
 * See also: RequestScenarios, Scenario.
 *
 * Direction: From the correlator to the client.
 *
 * Channel: The private channel that was specified in the RequestScenarios event.
 */
event RequestScenariosDone {}

/* This is a simple ack event that is sent by the correlator to indicate the
 * RequestScenarios event is received and the request is being processed
 *
 * See also: RequestScenarios
 *
 * Direction: From the correlator to the client.
 *
 * Channel: The private channel that was specified in the RequestScenarios event.
 */
event RequestScenariosAck {}

/**
 * Request that each instance of the specified scenario send an Instance event 
 * out on the supplied channel. When all instances for the scenario have been 
 * sent out, a final RequestInstancesDone event will be sent on the same channel.
 *
 * See also: Instance, RequestInstancesDone
 *
 * Direction: From the client to the correlator.
 *
 * Response: Instance() from each scenario instance.
 */
event RequestInstancesOnChannel { 
	string scenarioId;                   // Identifier of the scenario for which to return instances. 
	integer messageId;                   // the unique message ID (for request-response matching)
	string channel;                      // Name of the private response channel.
}

/**
 * Request that each instance for the specified user of the specified scenario
 * send an Instance event out on the supplied channel. When all instances for
 * the scenario have been sent out, a final RequestInstancesDone event will be 
 * sent on the same channel.
 *
 * See also: Instance, RequestInstancesDone
 *
 * Direction: From the client to the correlator.
 *
 * Response: Instance() from each scenario instance.
 */
event RequestInstancesOnChannelByUser { 
	string scenarioId;                   // Identifier of the scenario for which to return instances. 
	integer messageId;                   // the unique message ID (for request-response matching)
	string channel;                      // Name of the private response channel.
	string owner;                        // the username to filter by
}


/**
 * This is a simple marker event that is sent by the correlator to indicate 
 * that it has finished sending all of the Instance events in response
 * to a RequestInstancesInternal event.
 * 
 * See also: RequestInstancesInternal, Scenario.
 *
 * Direction: From the correlator to the client.
 *
 * Channel: A unique private channel as specified by the client in a 
 *          RequestScenariosOnChannel event.
 *
 *          Note that previously it would have been on <scenarioId>.Data and 
 *          <scenarioId>.Data.Raw, but that behaviour is now deprecated.
 */
event RequestInstancesDone {
	string scenarioId;                   // Identifier of the scenario for instances were returned. 	
	integer messageId;                   // the unique message ID (for request-response matching)
}


/**
 * Describes the meta-information about a scenario that is loaded in the 
 * correlator.
 * 
 * See also: RequestScenarios, RequestScenariosDone, ScenarioUnloaded
 * 
 * Direction: From correlator to client.
 *
 * Channel:   1) com.apama.scenario to broadcast when loaded.
 *            2) A unique private channel as specified by the client in a 
 *               RequestScenarios event.
 *
 * This event has gained the executionMode field in Apama 4.2
 */
event Scenario {
	string scenarioId;                   // unique identifier for Scenario, e.g. Scenario_statistical$002darbitrage
	string displayName;                  // user-specified name for Scenario, e.g. statistical-arbitrage
	string description;                  // description of the Scenario
	sequence<string> inputNames;         // input parameter names
	sequence<string> inputTypes;         // input parameter types
	sequence<string> inputConstraints;   // input parameter contraints
	sequence<string> inputDefaults;      // input parameter default values
	sequence<string> outputNames;        // output parameter names
	sequence<string> outputTypes;        // output parameter types
	integer executionMode;               // 0 = serial, 1 = parallel, 2 = parallel child. New as of 4.2
	dictionary<string, string> extraParams; // Additional parameters
}



/**
 * Indicates that a specific Scenario definition is being unloaded.
 *
 * Direction: From the correlator to the client.
 *
 * Channel: <scenarioId>.Control
 */
event ScenarioUnloaded { 
	string scenarioId;                   // the unique name of the scenario
}

/**
 * Provides a dump of the current state of a scenario instance.
 * The event definition is identical to the Created event, and includes the 
 * owner (user), initial state, and current values for all input fields and 
 * all output fields.
 *
 * Instance events are sent in response to RequestInstancesOnChannel event 
 * and the deprecated RequestInstancesInternal event; 
 *
 * See also: RequestInstancesOnChannel, RequestInstancesDone, RequestInstancesInternal
 *
 * Direction: From the correlator to the client.
 *
 * Channel: A unique private channel as specified by the client in a 
 *          RequestScenariosOnChannel event.
 *
 *          Note that previously it would have been on <scenarioId>.Data and 
 *          <scenarioId>.Data.Raw, but that behaviour is now deprecated.
 */
event Instance {
	string scenarioId;                   // the unique name of the scenario. 
	integer messageId;                   // the unique message ID (for request-response matching)
	integer scenarioInstanceId;          // the ID of the scenario instance. 
	string owner;                        // the owner (user) of the instance.
	string state;                        // the initial state of the instance.
	sequence<string> inputFieldValues;   // sequence of INPUT field values in string form. 
	sequence<string> outputFieldValues;  // sequence of OUTPUT field values in string form. 
}


/**
 * Indicates this shared MonitorScript has been loaded.
 *
 * Direction: From the correlator to the client.
 *
 * Channel: com.apama.scenario to broadcast when loaded.
 */
event ScenarioServiceLoaded { 
}

/**
 * Indicates this shared MonitorScript is being unloaded.
 *
 * Direction: From the correlator to the client.
 *
 * Channel: com.apama.scenario to broadcast when unloaded.
 */
event ScenarioServiceUnloaded { 
}


/**
 * Set the period over which updates will be queued and coalesced before being
 * sent out on the data channel. Defaults to zero, which means they won't be
 * queued. If it is negative then we won't send any updates on the data channel.
 * This event is deprecated and the ConfigureUpdates event should be used 
 * instead (see below)
 */
event SetThrottlingPeriod {
	float period;   // The period in seconds. Default zero.
}


/**
 * Configures how updates are sent from scenarios.
 * Each scenario is controlled by two configurations - a global default,
 * and an optional per scenario configuration.  The per scenario
 * configuration takes precedence over the global default.
 * The configuration is made up of a number of entries in 
 * the configuration dictionary. The ConfigureUpdate event 
 * is merged into any previous configuration.
 *
 * Global configuration can be modified by specifying an empty string 
 * for scenarioId, and empty values remove values.
 */
event ConfigureUpdates {
	/** Specifies the scenario the configuratio will apply to, or use 
		empty string "" to specify a global default. 
	*/
	string scenarioId;
	/** 
	 * A set of the configurations modified by this event
	 * the key and meaning is one of:
	 * sendThrottled - boolean - whether to send Updates to the 
	 *                           Throttled (.Data) channel (default=true)
	 * throttlePeriod - float - period with which to send Updates. 
	 *                          0.0 means updates are not throttled - 
	 *                          every update is sent on the Throttled 
	 *                          channel. (default=0.0)
	 * sendRaw - boolean - whether to send Updates on the Raw channel 
	 *                     (.Raw) (default=true)
 	 * sendThrottledUser - boolean - whether to send Updates to the 
	 *                     throttled filtered (.Data:username) channel
	 *                     (default=false)
 	 * sendRawUser - boolean - whether to send Updates to the Raw 
	 *                     channel (.Raw:username) (default=false)
	 * routeUpdate - boolean - whether to route Update (and Edited, Deleted) events.
	 * An empty value removes that entry from the configuration
	 */
	dictionary<string,string> configuration;
}

/**
 * Immediately flushes to receivers any scenario Update events that were 
 * waiting for the next throttling period before being sent. 
 * 
 */
event SendQueuedUpdatesNow {
	
}

/* ==========================================================================
 * The following describes INTERNAL event definitions that should not be sent 
 * into the correlator, nor relied upon.
 * ==========================================================================
 */

/**
 * Request that each instance of the specified scenario send an Instance event 
 * out on the scenario Data or Raw channel. When all instances for the scenario
 * have been sent out, a final RequestInstancesDone event will be sent on the 
 * same channel.
 *
 * See also: Instance, RequestInstancesDone, RequestInstancesOnChannel, RequestInstancesOnChannelByUser
 *
 * Direction: From the ScenarioService to the scenario
 *
 * Response: Instance() from each scenario instance, RequestInstancesDone when finished.
 */
event RequestInstancesInternal { 
	string scenarioId;                   // Identifier of the scenario for which to return instances. 
	integer messageId;                   // the unique message ID (for request-response matching)
	string channel;                      // Name of the private response channel.
	boolean internal;                    // if true, events should be routed/ send-to'd the main context
	string owner;                        // owner filter (optional)
	boolean ownerFilter;                 // whether to filter by owner
}

/**
 * A scenario has finished running, but is still discoverable.
 * (i.e. entered end state or failed - but not deleted).
 * Note that this event contains the state as of the last
 * Update/ Edited event - i.e. if an action modified an output variable 
 * and then caused the scenario to fail, the prior modification
 * would not be reflected in this event.
 *
 * This event contains sufficient information for discovery of the
 * scenario instance later
 * 
 * Direction: from scenarios to the ScenarioService sub-monitor (spawned per scenario)
 */
event ScenarioFinished {
	string scenarioId;                   // Identifier of the scenario which has failed. 
	integer scenarioInstanceId;          // the ID of the scenario instance. 
	string owner;                        // the owner (user) of the instance.
	string state;                        // the initial state of the instance.
	sequence<string> inputFieldValues;   // sequence of INPUT field values in string form. 
	sequence<string> outputFieldValues;  // sequence of OUTPUT field values in string form. 
}
/**
 * Only used internally to tell all the scenarios to start routing their
 * meta data (Scenario). It is followed by a sweeper FinishedScenarioRecovery
 * event which indicates that all the scenarios have reported in.
 */
event StartScenarioRecovery {}

/**
 * Sweeper event to indicate that scenario recovery is done. Only used internally.
 */
event FinishedScenarioRecovery {}

/**
 * Trigger discovery of a parallel scenario. Sent from a sub-monitor of
 * ScenarioService to RequestInstancesHandler to create a new sub-monitor.
 */
event RequestInstancesParallel {
	RequestInstancesInternal request;          // the original request event
	dictionary<integer, context> instances;    // all scenario instances and their running context
	integer highestInstanceId;                 // the highest scenarioInstanceId listed in instances (or more accurately, the highest when discovery started)
}

/**
 * Discovery protocol of a parallel scenario. Sent from a scenario instance
 * to RequestInstancesHandler.
 */
event RequestInstancesParallelDone {
	string scenarioId;                   // the unique name of the scenario
	integer messageId;                   // the unique message ID (for request-response matching)
	integer scenarioInstanceId;          // the ID of the scenario instance
}

/**
 * Notification of a new scenario instance
 */
event ParallelStarting {
	string scenarioId;                   // the unique name of the scenario
	integer scenarioInstanceId;          // the ID of the scenario instance
	string owner;                        // the owner of the scenario instance
	context runningCtx;                  // the context the scenario is running in
}

/**
 * Get the current configuration for a given scenario and the default configuration
 */
event GetConfiguration {
	string scenarioId;                   // the unique name of the scenario
}

/**
 * The current configuration for a given scenario and the default configuration
 * @see ConfigureUpdates
 */
event Configuration {
	string scenarioId;                        // the unique name of the scenario
	dictionary<string, string> defaults;      // the global defaults
	dictionary<string, string> configuration; // the scenario configuration (takes precedence)
}


/**
 * An operation has completed. Sent from parallel scenarios to the main context.
 */
event OperationCompleted {
	string scenarioId;
	integer scenarioInstanceId;
	integer messageId;
}

/**
 * Notification that a scenario has loaded a ConfigureUpdates event
 */
event ScenarioProcessedUpdates {
	string scenarioId;
}

/**
 * Request all configuration
 */
event GetAllConfiguration {
	integer requestId;
}

/** 
 * Response all configuration
 */
event AllConfiguration {
	integer requestId;
	dictionary<string, string> defaultConfig;
	dictionary<string, dictionary<string, string> > configurations;
}


/**
 * Library of utiltiy actions
 */
event ScenarioServiceLibrary {

	/**
	 * Get the control channel for a scenario Id. This channel
	 * is always enabled (uses an event set scenario ID)
	 */
	action getControlChannel(string scenarioId) returns string
	{
		return scenarioId+".Control";
	}
	/**
	 * Get the data channel for a scenario ID. This channel 
	 * is enabled by the sendThrottled configuration key and 
	 * the throttlePeriod key (Update events may be throttled)
	 */
	action getDataChannel(string scenarioId) returns string
	{
		return scenarioId+".Data";
	}
	/**
	 * Get the raw channel for a scenario ID. This channel
	 * is enabled by the sendRaw configuration key.
	 */
	action getRawChannel(string scenarioId) returns string
	{
		return scenarioId+".Data.Raw";
	}
	/**
	 * Get the data channel for a scenario Id. This channel 
	 * is enabled by the sendThrottledUser configuration key and 
	 * the throttlePeriod key (Update events may be throttled)
	 */
	action getDataUserChannel(string channel, string owner) returns string
	{
		return channel+":"+owner;
	}
	/**
	 * Get the raw channel for a scenario Id. This channel
	 * is enabled by the sendRawUser configuration key.
	 */
	action getRawUserChannel(string channel, string owner) returns string
	{
		return channel+":"+owner;
	}
	
	/**
	 * Merge configuration. Any entries in updates overwrite entries in configuration.
	 * An empty string value removes the value.
	 * @see ConfigureUpdates
	 */
	action mergeConfiguration(dictionary<string, string> updates, dictionary<string, string> configuration) {
		string k;
		for k in updates.keys() {
			configuration[k]:=updates[k];
			if updates[k]="" then {
				configuration.remove(k);
			}
		}
	}
	
	// implementation note: the defaults for sendThrottled, sendRaw, throttlePeriod, etc are in the following actions:
	/**
	 * Get the sendThrottled value from the given configuration
	 * @see ConfigureUpdates
	 */
	action getSendThrottled(dictionary<string,string> defaults, dictionary<string,string> config) returns boolean {
		string c:=getConfig(defaults, config, "sendThrottled", "true");
		return c = "true";
	}

	/**
	 * Get the sendThrottledUser value from the given configuration
	 * @see ConfigureUpdates
	 */
	action getSendThrottledUser(dictionary<string,string> defaults, dictionary<string,string> config) returns boolean {
		string c:=getConfig(defaults, config, "sendThrottledUser", "false");
		return c = "true";
	}
	
	/**
	 * Get the sendRaw value from the given configuration
	 * @see ConfigureUpdates
	 */
	action getSendRaw(dictionary<string,string> defaults, dictionary<string,string> config) returns boolean {
		string c:=getConfig(defaults, config, "sendRaw", "true");
		return c = "true";
	}
	
	/**
	 * Get the sendRawUser value from the given configuration
	 * @see ConfigureUpdates
	 */
	action getSendRawUser(dictionary<string,string> defaults, dictionary<string,string> config) returns boolean {
		string c:=getConfig(defaults, config, "sendRawUser", "false");
		return c = "true";
	}
	
	/**
	 * Get the throttlePeriod value from the given configuration
	 * @see ConfigureUpdates
	 */
	action getThrottlePeriod(dictionary<string,string> defaults, dictionary<string,string> config) returns float {
		string c:=getConfig(defaults, config, "throttlePeriod", "0.0");
		return float.parse(c);
	}
	
	/**
	 * Get the routeUpdate value from the given configuration
	 * @see ConfigureUpdates
	 */
	action getRouteUpdate(dictionary<string,string> defaults, dictionary<string,string> config) returns boolean {
		string c:=getConfig(defaults, config, "routeUpdate", "false");
		return c = "true";
	}
	

	/**
	 * Get the specified key from the configuration dictionaries, reverting to the default 
	 * if none specified.
	 */
	action getConfig(dictionary<string,string> defaults,
	                 dictionary<string,string> config, 
	                 string key, string _default) returns string {
		if config.hasKey(key) then {
			return config[key];
		}
		if defaults.hasKey(key) then {
			return defaults[key];
		}
		return _default;
	}

	action configurationManager(dictionary<string, string> defaultConfig, dictionary<string, dictionary<string, string> > configurations) {
		// the recognised ConfigureUpdates configuration keys, as above:
		dictionary<string,boolean> KNOWN_CONFIG_KEYS := {"sendThrottled":true, "throttlePeriod":false,
		 "sendRaw":true, "sendThrottledUser":true, "sendRawUser":true, "routeUpdate":true};

		dictionary <string,string> EMPTY_DICT:=new dictionary<string,string>;
		ConfigureUpdates cu;
		on all ConfigureUpdates():cu {
			string key;
			for key in cu.configuration.keys() {
				if not KNOWN_CONFIG_KEYS.hasKey(key) then {
					log "Unrecognized configuration property "+key+" in event "+cu.toString() at WARN;
				}
			}
			if cu.scenarioId = "" then {
				mergeConfiguration(cu.configuration, defaultConfig);
				log "Received "+cu.toString()+" : defaults applicable to all scenarios" at INFO;
			} else {
				if not configurations.hasKey(cu.scenarioId) then {
					configurations.add(cu.scenarioId, new dictionary<string,string>);
				}
				mergeConfiguration(cu.configuration, configurations[cu.scenarioId]);
				on ScenarioProcessedUpdates(cu.scenarioId) -> completed ConfigureUpdates(scenarioId=cu.scenarioId) {
					log "Received "+cu.toString()+" : applied to scenario" at INFO;
				}
				on completed ConfigureUpdates(scenarioId=cu.scenarioId) and not ScenarioProcessedUpdates(cu.scenarioId) {
					log "Received "+cu.toString()+" : for scenario that is not yet defined" at INFO;
				}
			}
		}

		GetConfiguration getConfig;
		on all GetConfiguration():getConfig {
			dictionary<string,string> config:=EMPTY_DICT;
			if configurations.hasKey(getConfig.scenarioId) then {
				config:=configurations[getConfig.scenarioId];
			}
			route Configuration(getConfig.scenarioId, defaultConfig, config);
		}	
		GetAllConfiguration gac;
		on all GetAllConfiguration():gac {
			route AllConfiguration(gac.requestId, defaultConfig, configurations);
		}
	}
		
}

event CallbackHelper {
	sequence<action<> > callbacks;
	action callback {
		action<> c;
		for c in callbacks {
			c();
		}
	}
}



/**
 * Base event for tracking configuration for a given scenario
 */
event ScenarioServiceUpdaterBase {
	// these are internal and should not be set by users
	string scenarioId;
	dictionary<string,string> defaultConfig;
	dictionary<string,string> config;
	ScenarioServiceLibrary lib;
	boolean sendThrottled;
	boolean sendRaw;
	boolean sendAny;
	boolean emitAny;
	boolean sendThrottledUser;
	boolean sendRawUser;
	boolean routeUpdate;
	float throttlePeriod;
	float throttleStart;
	sequence<listener> listeners;
	string controlChannel;
	string rawChannel;
	string dataChannel;

	/**
	 * Called by monitor at onload time
	 * Will maintain configuration for this scenario
	 * @param sId the scenarioId
	 */
	action init(string sId, action<> cb_onUpdate) {
		scenarioId:=sId;
		controlChannel := lib.getControlChannel(scenarioId);
		rawChannel := lib.getRawChannel(scenarioId);
		dataChannel := lib.getDataChannel(scenarioId);
		route GetConfiguration(scenarioId);
		Configuration c;
		listener l:=on Configuration(scenarioId=scenarioId):c {
			config := c.configuration;
			defaultConfig := c.defaults;
			configurationUpdated();
			cb_onUpdate();
		}
		listeners.append(l);
	}

	/**
	 * Listen for further configuration changes.
	 * @param cb_onUpdate callback upon configuration having been updated
	 */	
	action listenToConfigureUpdates(action<> cb_onUpdate) {
		ConfigureUpdates cu;
		listener l:=on all ConfigureUpdates(scenarioId=""):cu or all ConfigureUpdates(scenarioId=scenarioId):cu {
			if(cu.scenarioId != "") then {
				route ScenarioProcessedUpdates(cu.scenarioId);
			}
			onConfigureUpdates(cu);
			cb_onUpdate();
		}
		listeners.append(l);
	}

	/**
	 * Called when new ConfigureUpdates event available
	 * @param sId the scenarioId
	 */
	action onConfigureUpdates(ConfigureUpdates cu) {
		if cu.scenarioId = "" then {
			lib.mergeConfiguration(cu.configuration, defaultConfig);
		} else {
			lib.mergeConfiguration(cu.configuration, config);
		}
		configurationUpdated();
	}
	
	/**
	 * Called when the configuration should be re-parsed.
	 * @param sId the scenarioId
	 */
	action configurationUpdated() {
		sendThrottled:=lib.getSendThrottled(defaultConfig, config);
		sendThrottledUser:=lib.getSendThrottledUser(defaultConfig, config);
		if sendThrottled or sendThrottledUser then {
			throttlePeriod:=lib.getThrottlePeriod(defaultConfig, config);
			if(throttlePeriod < 0.0) then {
				sendThrottled:=false;
				sendThrottledUser:=false;
			}
			throttleStart:=currentTime;
		}
		sendRaw:=lib.getSendRaw(defaultConfig, config);
		sendRawUser:=lib.getSendRawUser(defaultConfig, config);
		routeUpdate:=lib.getRouteUpdate(defaultConfig, config);
		sendAny:= sendRaw or sendThrottled or routeUpdate or sendRawUser or sendThrottledUser;
		emitAny:= sendRaw or sendThrottled or sendRawUser or sendThrottledUser;
	}

	/** 
	 * Get whether this scenario should send on the throttled (Data) channel
	 */
	action isSendThrottled() returns boolean {
		return sendThrottled or sendThrottledUser;
	}

	/** 
	 * Get whether this scenario should send on the raw channel
	 */
	action isSendRaw() returns boolean {
		return sendRaw or sendRawUser;
	}

	action doEmit(string emitted, string owner) {
		if sendRaw then {
			emit emitted to rawChannel;
		}
		if sendThrottled then {
			emit emitted to dataChannel;
		}
		if sendRawUser then {
			emit emitted to lib.getRawUserChannel(rawChannel, owner);
		}
		if sendThrottledUser then {
			emit emitted to lib.getDataUserChannel(dataChannel, owner);
		}
	}

	/**
 	 * Kill any listeners this object has started
	 */
	action destroy() {
		listener l;
		for l in listeners {
			l.quit();
		}
	}
}


/**
 * Utility event for tracking configuration for a given scenario.
 * This event is suitable for use by monitors which spawn per instance
 * (e.g. Scenarios)
 * 
 * This event also uses a callback to get the updates (supplied in
 * instanceInit). If the scenario is configured to only send throttled 
 * updates, the callback is only called when the throttling period 
 * determines an update should be sent - thus, the scenario does not
 * need to generate the output sequence<string> except when needed,
 * which can improve performance in such a configuration.
 * 
 * actions starting with an underscore should be considered private 
 * and not called by users of this event.
 */
event ScenarioServiceUpdaterSingleInstance {
	// these are internal and should not be set by users
	string scenarioId;
	integer scenarioInstanceId;
	ScenarioServiceLibrary lib;
	listener throttlingListener;
	ScenarioServiceUpdaterBase base;
	boolean havePending;
	float latestUpdate;
	action<> returns sequence<string> getUpdate;
	Update update;
	boolean needUpdate;
	context mainContext;
	string owner;
	string controlChannel;
	string rawChannel;
	string dataChannel;

	/**
	 * Called by monitor at onload time
	 * Will maintain configuration for this scenario
	 */
	action init(string sId) {
		init_cb(sId, _noopAction);
	}
	
	/**
	 * Called by monitor at onload time
	 * Will maintain configuration for this scenario.
	 * cb_init is called when initialisation is complete
	 */
	action init_cb(string sId, action<> cb_init) {
		base.init(sId, cb_init);
		scenarioId:=sId;
		controlChannel := lib.getControlChannel(scenarioId);
		rawChannel := lib.getRawChannel(scenarioId);
		dataChannel := lib.getDataChannel(scenarioId);
		base.listenToConfigureUpdates(_noopAction);
		mainContext:=context.current();
	}

	action _noopAction() {
	}
	

	/**
	 * Called by monitor after spawn
	 * Will maintain configuration for this scenario, and update listeners appropriately.
	 * @param getUpdateCallback a callback to get the latest outputFieldValues - may be called at any time, must 
         *        always return a consistent set of outputs
	 */
	action instanceInit(integer id, action<> returns sequence<string> getUpdateCallback, string _owner) {
		scenarioInstanceId:=id;
		owner:=_owner;
		getUpdate:=getUpdateCallback;
		update.scenarioId:=scenarioId;
		update.scenarioInstanceId:=scenarioInstanceId;
		base.listenToConfigureUpdates(_configurationUpdated);
		_configurationUpdated();
		listener l:=on all SendQueuedUpdatesNow() {
			_sendThrottledUpdate();
		}
		base.listeners.append(l);
	}

	/** 
	 * Get whether this scenario should route updates
	 */
	action isRouteUpdate() returns boolean {
		return base.routeUpdate;
	}

	/**
 	 * Kill any listeners this object has started
	 */
	action destroy() {
		base.destroy();
		throttlingListener.quit();
	}
	  
	/**
	 * called in instances (not factories) when configuration has changed
	 */
	action _configurationUpdated {
		if base.isSendThrottled() then {
			throttlingListener.quit();
			flushPending();
			if(base.throttlePeriod >= 0.0) then {
				if havePending then {
					_setupThrottleListener();
				}
			}
		}
	}

	/**
	 * set up a throttled listener according to throttlePeriod control
	 */
	action _setupThrottleListener {
		if base.throttlePeriod > 0.0 then {
			float offset:=currentTime-base.throttleStart;
			float t:=((offset/base.throttlePeriod).floor()+1).toFloat();
			throttlingListener:=on wait((t*base.throttlePeriod)-offset) {
				_sendThrottledUpdate();
			}
		} else {
			_sendThrottledUpdate();
		}
	}

	/**
	 * actually send an update on the throttled channel
	 */
	action _sendThrottledUpdate {
		if not havePending then {
			return;
		}
		if needUpdate then {
			update.outputFieldValues:=getUpdate();
			update.timeStamp:=latestUpdate;
			needUpdate:=false;
		}
		if base.sendThrottled then {
			send update to dataChannel;
		}
		if base.sendThrottledUser then {
			send update to lib.getDataUserChannel(dataChannel, owner);
		}
		havePending:=false;
	}

	/**
	 * flush any pending update on the throttled channel.
	 */
	action flushPending() {
		if havePending then {
			_sendThrottledUpdate();
			throttlingListener.quit();
		}
	}	

	/**
 	 * Called when a new update is available.
	 */
	action newUpdateAvailable() {
		needUpdate:=true;
		latestUpdate:=currentTime;
 		if base.sendRaw or base.routeUpdate then {
			if needUpdate then {
				update.outputFieldValues:=getUpdate();
				update.timeStamp:=currentTime;
				needUpdate:=false;
			}
			if base.sendRaw then {
				send update to rawChannel;
			}
			if base.sendRawUser then {
				send update to lib.getRawUserChannel(rawChannel, owner);
			}
			if base.routeUpdate then {
				route update;
			}
		}
		if base.isSendThrottled() and not havePending then {
			havePending:=true;
			_setupThrottleListener();
		}
	}
	
	/**
 	 * Called to send a new Acknowledgement event.
	 */
	action emitAcknowledgement(integer messageId) {
		Acknowledge ack:=Acknowledge(scenarioId, messageId, scenarioInstanceId, true, getUpdate());
		if base.routeUpdate then {
			route ack;
		}
		if base.emitAny then {
			send ack to controlChannel;
		}
	}
				
	/**
 	 * Called to send a new Nak event.
	 */
	action emitNack(integer messageId) {
		Acknowledge nack:=Acknowledge(scenarioId, messageId, scenarioInstanceId, false, new sequence<string>);
		if base.routeUpdate then {
			route nack;
		}
		if base.emitAny then {
			send nack to controlChannel;
		}
	}
	
	/**
 	 * Called to send a new Created event.
	 */
	action emitCreated(integer messageId, string owner, string state, sequence<string> inputVariables, sequence<string> outputVariables) {
		if base.sendAny then {
			Created created:=Created(scenarioId, messageId, scenarioInstanceId, owner, state, inputVariables, outputVariables);
			route created;
			if base.emitAny then {
				base.doEmit(created.toString(), owner);
			}
		}
	}
	
	/**
 	 * Called to send a new Edited event.
	 */
	action emitEdited(integer messageId, sequence<string> inputVariables) {
		flushPending();
		if base.sendAny then {
			Edited edited:=Edited(scenarioId, messageId, scenarioInstanceId, inputVariables, getUpdate());
			if base.routeUpdate then {
				route edited;
			}
			if base.emitAny then {
				base.doEmit(edited.toString(), owner);
			}
		}
		emitOpCompleted(messageId);
	}

	/**
 	 * Called to say an operation has completed; implied by emitEdited. Must be called before emitInstanceDied.
	 */
	action emitOpCompleted(integer messageId) {
		if(context.current().getId()!=mainContext.getId()) then {
			send OperationCompleted(scenarioId, scenarioInstanceId, messageId) to mainContext;
		}
	}

	/**
 	 * Called to send a new Deleted event.
	 */
	action emitDeleted(integer messageId) {
		flushPending();
		if base.sendAny then {
			Deleted deleted:=Deleted(scenarioId, messageId, scenarioInstanceId);
			if base.routeUpdate then {
				route deleted;
			}
			if base.emitAny then {
				base.doEmit(deleted.toString(), owner);
			}
		}
		throttlingListener.quit();
		notifyInstanceDied();
	}

	/**
 	 * Called to send an instance Died event (either of failed, ended)
	 */
	action emitInstanceDied() {
		flushPending();
		if base.sendAny then {
			InstanceDied iDied:=InstanceDied(scenarioId, scenarioInstanceId);
			if base.emitAny then {
				base.doEmit(iDied.toString(), owner);
			}
			if mainContext.getId()=context.current().getId() then {
				route iDied;
			}
		}
		throttlingListener.quit();
	}

	/**
 	 * Called to notify the scenario service monitor that we have gone away - must be called 
 	 * after emitting any events regarding this instance going away. Implied by emitDeleted.
	 */
	action notifyInstanceDied() {
		if mainContext.getId()!=context.current().getId() then {
			InstanceDied iDied:=InstanceDied(scenarioId, scenarioInstanceId);
			
			// give a chance for anyone monitoring this from its own context 
			// to handle the InstanceDied before the main context
			if base.routeUpdate then {
				route InstanceDied(scenarioId, scenarioInstanceId);
			}

			send iDied to mainContext;
		}
	}
	
	/**
 	 * Called to send a new StateChange event.
	 */
	action emitStateChange(string state) {
		flushPending();
		StateChange stchange:=StateChange(scenarioId, scenarioInstanceId, state);
		if mainContext.getId()!=context.current().getId() then {
			send stchange to mainContext;
		} else {
			route stchange;
		}
		if base.emitAny then {
			base.doEmit(stchange.toString(), owner);
		}
	}

	/**
 	 * Called to send an instance in response to a RequestInstancesInternal event
	 */
	action emitInstance(RequestInstancesInternal request, string owner, string state, sequence<string> input, sequence<string> output) {
		Instance instance:=Instance(scenarioId, request.messageId, scenarioInstanceId, owner, state, input, output);
		if request.internal then {
			if mainContext.getId() != context.current().getId() then {
				send instance to mainContext;
			} else {
				route instance;
			}
		} else {
			if(base.emitAny) then {
				send instance to request.channel;
			}
		}
		if mainContext.getId() != context.current().getId() then {
			send RequestInstancesParallelDone(scenarioId, request.messageId, scenarioInstanceId) to mainContext;
		}
	}

	/**
 	 * Called when the instance has failed.  input and output are the input
 	 * and output variables as at the last Update/ Edited point.
	 */
	action finished(string state, string owner, sequence<string> input, sequence<string> output) {
		ScenarioFinished scenFinished:=ScenarioFinished(scenarioId, scenarioInstanceId, owner, state, input, output);
		if mainContext.getId() != context.current().getId() then {
			send scenFinished to mainContext;
		} else {
			route scenFinished;
		}
	}
	
}


/**
 * Utilitiy event for tracking configuration for a given scenario.
 * This event is suitable for use by monitors which spawn per scenario,
 * but not per instance. (e.g. ScenarioService, DataViewService)
 * 
 * actions starting with an underscore should be considered private 
 * and not called by users of this event.
 * 
 * Note that this updater only honours sendThrottledUser changes at the next throttling period
 * (it does not record the owner if sendThrottledUser is not true)
 */
event ScenarioServiceUpdaterMultipleInstances {
	// these are internal and should not be set by users
	string scenarioId;
	ScenarioServiceLibrary lib;
	listener throttlingListener;
	ScenarioServiceUpdaterBase base;
	boolean currentlySendingThrottledUser;
	dictionary<integer, Update> updates;
	dictionary<integer, string> owners;
	context mainContext;
	string controlChannel;
	string rawChannel;
	string dataChannel;

	/**
	 * Called by monitor for each scenario
	 * Will maintain configuration for this scenario Id
	 */
	action init(string sId, context mainCtx) {
		_init(sId, mainCtx, _configurationUpdated);
	}
	
	/**
	 * Called by monitor for each scenario
	 * Will maintain configuration for this scenario Id
	 */
	action init_cb(string sId, context mainCtx, action<> cb_initComplete) {
		CallbackHelper callbackHelper:=new CallbackHelper;
		callbackHelper.callbacks.append(cb_initComplete);
		callbackHelper.callbacks.append(_configurationUpdated);
		_init(sId, mainCtx, callbackHelper.callback);
	}

	/**
	 * Implementation of init and init_cb
	 */
	action _init(string sId, context mainCtx, action<> cb_initComplete) {
		base.init(sId, cb_initComplete);
		mainContext:=mainCtx;
		scenarioId:=sId;
		controlChannel := lib.getControlChannel(scenarioId);
		rawChannel := lib.getRawChannel(scenarioId);
		dataChannel := lib.getDataChannel(scenarioId);
		listener l:=on all SendQueuedUpdatesNow() {
			_sendThrottledUpdates();
		}
		base.listeners.append(l);
		base.listenToConfigureUpdates(_configurationUpdated);
	}
	
	/** 
	 * Get whether this scenario should route updates
	 */
	action isRouteUpdate() returns boolean {
		return base.routeUpdate;
	}

	/**
 	 * Kill any listeners this object has started
	 */
	action destroy() {
		base.destroy();
		throttlingListener.quit();
	}
	  

	/**
	 * called in instances (not factories) when configuration has changed
	 */
	action _configurationUpdated {
		if base.isSendThrottled() then {
			throttlingListener.quit();
			flushPending();
			if(base.throttlePeriod >= 0.0) then {
				_setupThrottleListener();
			}
		}
	}

	/**
	 * set up a throttled listener according to throttlePeriod control
	 */
	action _setupThrottleListener {
		if base.throttlePeriod > 0.0 then {
			throttlingListener:=on all wait(base.throttlePeriod) {
				_sendThrottledUpdates();
			}
		} else {
			_sendThrottledUpdates();
		}
	}

	/**
	 * actually send an update on the throttled channel
	 */
	action _sendThrottledUpdates {
		integer instance;
		if base.sendThrottled then {
			for instance in updates.keys() {
				send updates[instance] to dataChannel;
			}
		}
		if currentlySendingThrottledUser then {
			for instance in updates.keys() {
				send updates[instance] to lib.getDataUserChannel(dataChannel, owners[instance]);
			}
		}
		owners.clear();
		updates.clear();
		currentlySendingThrottledUser := base.sendThrottledUser;
	}

	/**
	 * flush any pending update on the throttled channel.
	 */
	action flushPending() {
		_sendThrottledUpdates();
	}	

	/**
 	 * Flush pending throttled data for one instance
	 */
	action flushPendingInstance(integer scenarioInstanceId) {
		if updates.hasKey(scenarioInstanceId) then {
			if base.sendThrottled then {
				send updates[scenarioInstanceId] to dataChannel;
			}
			if currentlySendingThrottledUser then {
				send updates[scenarioInstanceId] to lib.getDataUserChannel(dataChannel, owners[scenarioInstanceId]);
			}
			updates.remove(scenarioInstanceId);
			if owners.hasKey(scenarioInstanceId) then {
				owners.remove(scenarioInstanceId);
			}
		}
	}	

	/**
 	 * Called when a new update is available. (This variant allows setting of the time parameter)
	 */
	action emitUpdate_time(integer scenarioInstanceId, float time, sequence<string> output, string owner) {
		if base.sendAny then {
			Update update:=Update(scenarioId, scenarioInstanceId, time, output);
			if base.sendRaw then {
				send update to rawChannel;
			}
			if base.sendRawUser then {
				send update to lib.getRawUserChannel(rawChannel, owner);
			}
			if base.routeUpdate then {
				route update;
			}
			if base.isSendThrottled() then {
				if base.throttlePeriod > 0.0 then {
					updates.add(scenarioInstanceId, update);
					if currentlySendingThrottledUser then {
						owners.add(scenarioInstanceId, owner);
					}
				} else {
					send update to dataChannel;
				}
			}
		}
	}
	
	/**
 	 * Called when a new update is available.
	 */
	action emitUpdate(integer scenarioInstanceId, sequence<string> output, string owner) {
		emitUpdate_time(scenarioInstanceId, currentTime, output, owner);
	}

	/**
 	 * Called to send a new Acknowledgement event.
	 */
	action emitAcknowledgement(integer messageId, integer scenarioInstanceId, sequence<string> output) {
		Acknowledge ack:=Acknowledge(scenarioId, messageId, scenarioInstanceId, true, output);
		if base.routeUpdate then {
			route ack;
		}
		if base.emitAny then {
			send ack to controlChannel;
		}
	}
				
	/**
 	 * Called to send a new Nak event.
	 */
	action emitNack(integer messageId, integer scenarioInstanceId) {
		Acknowledge nack:=Acknowledge(scenarioId, messageId, scenarioInstanceId, false, new sequence<string>);
		if base.routeUpdate then {
			route nack;
		}
		if base.emitAny then {
			send nack to controlChannel;
		}
	}
	
	/**
 	 * Called to send a new Created event.
	 */
	action emitCreated(integer messageId, integer scenarioInstanceId, string owner, string state, sequence<string> inputVariables, sequence<string> outputVariables) {
		if base.sendAny then {
			Created created:=Created(scenarioId, messageId, scenarioInstanceId, owner, state, inputVariables, outputVariables);
			route created;
			if base.emitAny then {
				string sCreated:=created.toString();
				base.doEmit(sCreated, owner);
			}
		}
	}

	/**
 	 * Called to send any received events (except for instance) for this scenario.
	 */
	action emitReceivedEvents() {
		dictionary<integer, string> instanceOwners:=new dictionary<integer, string>;
		{
			Update update;
			listener l:=on all Update(scenarioId = scenarioId):update {
				if base.sendRaw then {
					send update to rawChannel;
				}
				if base.sendRawUser and instanceOwners.hasKey(update.scenarioInstanceId) then {	
					send update to lib.getRawUserChannel(rawChannel, instanceOwners[update.scenarioInstanceId]);
				}
				if base.isSendThrottled() then {
					if base.throttlePeriod > 0.0 then {
						updates.add(update.scenarioInstanceId, update);
						string owner:="*";
						if instanceOwners.hasKey(update.scenarioInstanceId) then {
							owner:=instanceOwners[update.scenarioInstanceId];
						}
						if currentlySendingThrottledUser then {
							owners.add(update.scenarioInstanceId, owner);
						}
					} else {
						send update to dataChannel;
					}
				}
			}
			base.listeners.append(l);
		}
		{
			Created created;
			listener l:=on all Created(scenarioId = scenarioId):created {
				if(created.owner != "*") then {
					instanceOwners.add(created.scenarioInstanceId, created.owner);
				}
				base.doEmit(created.toString(), created.owner);				
			}
			base.listeners.append(l);
		}
		{
			Deleted deleted;
			listener l:=on all Deleted(scenarioId = scenarioId):deleted {
				flushPendingInstance(deleted.scenarioInstanceId);
				string owner:="*";
				if instanceOwners.hasKey(deleted.scenarioInstanceId) then {
					owner:=instanceOwners[deleted.scenarioInstanceId];
					instanceOwners.remove(deleted.scenarioInstanceId);
				}
				base.doEmit(deleted.toString(), owner);		
			}
			base.listeners.append(l);
		}
		{
			Edited edited;
			listener l:=on all Edited(scenarioId = scenarioId):edited {
				flushPendingInstance(edited.scenarioInstanceId);
				string owner:="*";
				if instanceOwners.hasKey(edited.scenarioInstanceId) then {
					owner:=instanceOwners[edited.scenarioInstanceId];
				}
				base.doEmit(edited.toString(), owner);		
			}
			base.listeners.append(l);
		}
		{
			InstanceDied instanceDied;
			listener l:=on all InstanceDied(scenarioId = scenarioId):instanceDied {
				flushPendingInstance(instanceDied.scenarioInstanceId);
				string owner:="*";
				if instanceOwners.hasKey(instanceDied.scenarioInstanceId) then {
					owner:=instanceOwners[instanceDied.scenarioInstanceId];
				}
				base.doEmit(instanceDied.toString(), owner);		
			}
			base.listeners.append(l);
		}
	}
	
	/**
 	 * Called to send a new Edited event.
	 */
	action emitEdited(integer messageId, integer scenarioInstanceId, sequence<string> inputVariables, sequence<string> outputVariables, string owner) {
		flushPendingInstance(scenarioInstanceId);
		if base.sendAny then {
			Edited edited:=Edited(scenarioId, messageId, scenarioInstanceId, inputVariables, outputVariables);
			if base.routeUpdate then {
				route edited;
			}
			if base.emitAny then {
				base.doEmit(edited.toString(), owner);
			}
		}
		emitOpCompleted(messageId, scenarioInstanceId);
	}

	/**
 	 * Called to say an operation has completed; implied by emitEdited. Must be called before emitInstanceDied.
	 */
	action emitOpCompleted(integer messageId, integer scenarioInstanceId) {
		if(context.current().getId()!=mainContext.getId()) then {
			send OperationCompleted(scenarioId, scenarioInstanceId, messageId) to mainContext;
		}
	}

	/**
 	 * Called to send a new Deleted event.
	 */
	action emitDeleted(integer messageId, integer scenarioInstanceId, string owner) {
		flushPendingInstance(scenarioInstanceId);
		if base.sendAny then {
			Deleted deleted:=Deleted(scenarioId, messageId, scenarioInstanceId);
			if base.routeUpdate then {
				route deleted;
			}
			if base.emitAny then {
				base.doEmit(deleted.toString(), owner);
			}
		}
		notifyInstanceDied(scenarioInstanceId);
	}

	/**
 	 * Called to notify the scenario service monitor that we have gone away - must be called 
 	 * after emitting any events regarding this instance going away. Implied by emitDeleted.
	 */
	action notifyInstanceDied(integer scenarioInstanceId) {
		if mainContext.getId()!=context.current().getId() then {
			InstanceDied iDied:=InstanceDied(scenarioId, scenarioInstanceId);
			send iDied to mainContext;
		}
	}
	

	
	/**
 	 * Called to send an instance Died event (either of failed, ended)
	 */
	action emitInstanceDied(integer scenarioInstanceId, string owner) {
		flushPendingInstance(scenarioInstanceId);
		if base.sendAny then {
			InstanceDied iDied:=InstanceDied(scenarioId, scenarioInstanceId);
			if base.emitAny then {
				base.doEmit(iDied.toString(), owner);
			}
			if mainContext.getId()=context.current().getId() then {
				route iDied;
			}
		}
	}
	
	/**
 	 * Called to send a new StateChange event.
	 */
	action emitStateChange(string state, integer scenarioInstanceId, string owner) {
		flushPendingInstance(scenarioInstanceId);
		StateChange stchange:=StateChange(scenarioId, scenarioInstanceId, state);
		if mainContext.getId()!=context.current().getId() then {
			send stchange to mainContext;
		} else {
			route stchange;
		}
		if base.emitAny then {
			base.doEmit(stchange.toString(), owner);
		}
	}

	/**
 	 * Called to send an instance in response to a RequestInstancesInternal event
	 */
	action emitInstance(RequestInstancesInternal request, integer scenarioInstanceId, string owner, string state, sequence<string> input, sequence<string> output) {
		Instance instance:=Instance(scenarioId, request.messageId, scenarioInstanceId, owner, state, input, output);
		if request.internal then {
			if mainContext.getId() != context.current().getId() then {
				send instance to mainContext;
			} else {
				route instance;
			}
		} else {
			if(base.emitAny) then {
				send instance to request.channel;
			}
		}
		if mainContext.getId() != context.current().getId() then {
				send RequestInstancesParallelDone(scenarioId, request.messageId, scenarioInstanceId) to mainContext;
		}
	}
	/**
 	 * Called to send an instance that has already been seen in the current context
	 */
	action emitReceivedInstance(RequestInstancesInternal request, Instance instance) {
		if request.internal then {
			if mainContext.getId() != context.current().getId() then {
				send instance to mainContext;
			}
		} else {
			if(base.emitAny) then {
				send instance to request.channel;
			}
		}
	}
	
}


/*
 * Monitor that performs the following tasks:
 *   - routing/emitting ScenarioServiceLoaded when the service is loaded
 *   - routing/emitting ScenarioServiceUnloaded when the service is unloaded
 *   - routing/emitting a nack if a Create request is ignored
 *   - maintains latest configuration
 *   - tracks state of ended/ failed scenarios
 *   - forwards Edit, delete events to scenarios in other contexts
 *
 */
monitor ScenarioService {

	event PendingOperation {
		integer messageId;
		integer type; // 0 = delete, 1 = edit
	}

	listener throttledSenderListener;
	ScenarioServiceLibrary lib;
	RequestScenarios requestScenarios;
	boolean requestingScenarios;
	
	// MetaData relating to the interface
	dictionary<string,string> interfaceMetaData := {
		"interface.package"     :"com.apama.scenario",
		"interface.name"        :"ScenarioService",
		"interface.fileName"    :"ScenarioService.mon",
		"interface.vendor"      :"Apama",
		"interface.version"     :"5.3.0.0.247085",
		"interface.fullVersion" :"rel/5.3.0.x@247085",
		"interface.language"    :"MonitorScript"
	};
	
	// Channel names	
	string scenarioServiceChannel := "com.apama.scenario";
	integer highestInstanceId;


	// the first mThread handles scenario discovery and maps some events to internal events
	action onload {
		// print version
		log "ScenarioService interface loaded. MetaData: "+interfaceMetaData.toString() at INFO;
		
		// generate the ScenarioServiceLoaded event
		route ScenarioServiceLoaded();
		send ScenarioServiceLoaded() to scenarioServiceChannel;

		dictionary <string,string> defaultConfig:=new dictionary<string,string>;
		dictionary <string, dictionary<string,string> > configurations:=new dictionary<string, dictionary<string,string> >;
		lib.configurationManager(defaultConfig, configurations);
		RequestInstancesOnChannel requestInstancesOnChannel;
		on all RequestInstancesOnChannel():requestInstancesOnChannel {
			route RequestInstancesInternal(requestInstancesOnChannel.scenarioId, requestInstancesOnChannel.messageId, requestInstancesOnChannel.channel, false, "", false);
			on RequestInstancesDone(scenarioId=requestInstancesOnChannel.scenarioId, messageId=requestInstancesOnChannel.messageId) {
				send RequestInstancesDone(requestInstancesOnChannel.scenarioId, requestInstancesOnChannel.messageId) to requestInstancesOnChannel.channel;
			}
		}

		RequestInstancesOnChannelByUser requestInstancesOnChannelByUser;
[...]
TIME 0000000e 1444783442.6,1
TIME 0000000e 1444783445.2,1
TIME 0000000e 1444783446.2,1
TIME 0000000e 1444783447.2,1
TIME 0000000e 1444783450.8,1
TIME 0000000e 1444783451.2,1
TIME 0000000e 1444783453.2,1
TIME 0000000e 1444783454.2,1
TIME 0000000e 1444783455.2,1
TIME 0000000e 1444783455.6,1
TIME 0000000e 1444783456.2,1
TIME 0000000e 1444783458.2,1
TIME 0000000e 1444783459.2,1
TIME 0000000e 1444783460.2,1
TIME 0000000e 1444783461.2,1
TIME 0000000e 1444783463.8,1
TIME 0000000e 1444783464.2,1
TIME 0000000e 1444783466.2,1
TIME 0000000e 1444783467.2,1
TIME 0000000e 1444783468.2,1
TIME 0000000e 1444783468.6,1
TIME 0000000e 1444783471.2,1
TIME 0000000e 1444783472.2,1
TIME 0000000e 1444783473.2,1
TIME 0000000e 1444783476.2,1
TIME 0000000e 1444783476.8,1
TIME 0000000e 1444783477.2,1
TIME 0000000e 1444783479.2,1
TIME 0000000e 1444783480.2,1
TIME 0000000e 1444783481.2,1
TIME 0000000e 1444783481.6,1
TIME 0000000e 1444783484.2,1
TIME 0000000e 1444783485.2,1
TIME 0000000e 1444783486.2,1
TIME 0000000e 1444783489.8,1
TIME 0000000e 1444783490.2,1
TIME 0000000e 1444783491.2,1
TIME 0000000e 1444783492.2,1
TIME 0000000e 1444783493.2,1
TIME 0000000e 1444783494.2,1
TIME 0000000e 1444783494.6,1
TIME 0000000e 1444783496.2,1
TIME 0000000e 1444783497.2,1
TIME 0000000e 1444783498.2,1
TIME 0000000e 1444783499.2,1
TIME 0000000e 1444783501.2,1
TIME 0000000e 1444783502.8,1
TIME 0000000e 1444783503.2,1
TIME 0000000e 1444783505.2,1
TIME 0000000e 1444783506.2,1
TIME 0000000e 1444783507.2,1
TIME 0000000e 1444783507.6,1
TIME 0000000e 1444783510.2,1
TIME 0000000e 1444783511.2,1
TIME 0000000e 1444783512.2,1
TIME 0000000e 1444783515.8,1
TIME 0000000e 1444783516.2,1
TIME 0000000e 1444783518.2,1
TIME 0000000e 1444783519.2,1
TIME 0000000e 1444783520.2,1
TIME 0000000e 1444783520.6,1
TIME 0000000e 1444783521.2,1
TIME 0000000e 1444783523.2,1
TIME 0000000e 1444783524.2,1
TIME 0000000e 1444783525.2,1
TIME 0000000e 1444783526.2,1
TIME 0000000e 1444783528.8,1
TIME 0000000e 1444783529.2,1
TIME 0000000e 1444783531.2,1
TIME 0000000e 1444783532.2,1
TIME 0000000e 1444783533.2,1
TIME 0000000e 1444783533.6,1
TIME 0000000e 1444783536.2,1
TIME 0000000e 1444783537.2,1
TIME 0000000e 1444783538.2,1
TIME 0000000e 1444783541.2,1
TIME 0000000e 1444783541.8,1
TIME 0000000e 1444783542.2,1
TIME 0000000e 1444783544.2,1
TIME 0000000e 1444783545.2,1
TIME 0000000e 1444783546.2,1
TIME 0000000e 1444783546.6,1
TIME 0000000e 1444783549.2,1
TIME 0000000e 1444783550.2,1
TIME 0000000e 1444783551.2,1
TIME 0000000e 1444783554.8,1
TIME 0000000e 1444783555.2,1
TIME 0000000e 1444783556.2,1
TIME 0000000e 1444783557.2,1
TIME 0000000e 1444783558.2,1
TIME 0000000e 1444783559.2,1
TIME 0000000e 1444783559.6,1
TIME 0000000e 1444783561.2,1
TIME 0000000e 1444783562.2,1
TIME 0000000e 1444783563.2,1
TIME 0000000e 1444783564.2,1
TIME 0000000e 1444783566.2,1
TIME 0000000e 1444783567.8,1
TIME 0000000e 1444783568.2,1
TIME 0000000e 1444783570.2,1
TIME 0000000e 1444783571.2,1
TIME 0000000e 1444783572.2,1
TIME 0000000e 1444783572.6,1
TIME 0000000e 1444783572.7,1
TIME 0000000e 1444783575.2,1
TIME 0000000e 1444783576.2,1
TIME 0000000e 1444783577.2,1
TIME 0000000e 1444783580.8,1
TIME 0000000e 1444783581.2,1
TIME 0000000e 1444783583.2,1
TIME 0000000e 1444783584.2,1
TIME 0000000e 1444783585.2,1
TIME 0000000e 1444783585.6,1
TIME 0000000e 1444783586.2,1
TIME 0000000e 1444783588.2,1
TIME 0000000e 1444783589.2,1
TIME 0000000e 1444783590.2,1
TIME 0000000e 1444783591.2,1
TIME 0000000e 1444783593.8,1
TIME 0000000e 1444783594.2,1
TIME 0000000e 1444783596.2,1
TIME 0000000e 1444783597.2,1
TIME 0000000e 1444783598.2,1
TIME 0000000e 1444783598.6,1
TIME 0000000e 1444783601.2,1
TIME 0000000e 1444783602.2,1
TIME 0000000e 1444783603.2,1
TIME 0000000e 1444783606.2,1
TIME 0000000e 1444783606.8,1
TIME 0000000e 1444783607.2,1
TIME 0000000e 1444783609.2,1
TIME 0000000e 1444783610.2,1
TIME 0000000e 1444783611.2,1
TIME 0000000e 1444783611.6,1
TIME 0000000e 1444783614.2,1
TIME 0000000e 1444783615.2,1
TIME 0000000e 1444783616.2,1
TIME 0000000e 1444783619.8,1
TIME 0000000e 1444783620.2,1
TIME 0000000e 1444783621.2,1
TIME 0000000e 1444783622.2,1
TIME 0000000e 1444783623.2,1
TIME 0000000e 1444783624.2,1
TIME 0000000e 1444783624.6,1
TIME 0000000e 1444783626.2,1
TIME 0000000e 1444783627.2,1
TIME 0000000e 1444783628.2,1
TIME 0000000e 1444783629.2,1
TIME 0000000e 1444783631.2,1
TIME 0000000e 1444783632.8,1
TIME 0000000e 1444783633.2,1
TIME 0000000e 1444783635.2,1
TIME 0000000e 1444783636.2,1
TIME 0000000e 1444783637.2,1
TIME 0000000e 1444783637.6,1
TIME 0000000e 1444783640.2,1
TIME 0000000e 1444783641.2,1
TIME 0000000e 1444783642.2,1
TIME 0000000e 1444783645.8,1
TIME 0000000e 1444783646.2,1
TIME 0000000e 1444783648.2,1
TIME 0000000e 1444783649.2,1
TIME 0000000e 1444783650.2,1
TIME 0000000e 1444783650.6,1
TIME 0000000e 1444783651.2,1
TIME 0000000e 1444783653.2,1
TIME 0000000e 1444783654.2,1
TIME 0000000e 1444783655.2,1
TIME 0000000e 1444783656.2,1
TIME 0000000e 1444783658.8,1
TIME 0000000e 1444783659.2,1
TIME 0000000e 1444783661.2,1
TIME 0000000e 1444783662.2,1
TIME 0000000e 1444783663.2,1
TIME 0000000e 1444783663.6,1
TIME 0000000e 1444783666.2,1
TIME 0000000e 1444783667.2,1
TIME 0000000e 1444783668.2,1
TIME 0000000e 1444783671.2,1
TIME 0000000e 1444783671.8,1
TIME 0000000e 1444783672.2,1
TIME 0000000e 1444783674.2,1
TIME 0000000e 1444783675.2,1
TIME 0000000e 1444783676.2,1
TIME 0000000e 1444783676.6,1
TIME 0000000e 1444783679.2,1
TIME 0000000e 1444783680.2,1
TIME 0000000e 1444783681.2,1
TIME 0000000e 1444783684.8,1
TIME 0000000e 1444783685.2,1
TIME 0000000e 1444783686.2,1
TIME 0000000e 1444783687.2,1
TIME 0000000e 1444783688.2,1
TIME 0000000e 1444783689.2,1
TIME 0000000e 1444783689.6,1
TIME 0000000e 1444783691.2,1
TIME 0000000e 1444783692.2,1
TIME 0000000e 1444783693.2,1
TIME 0000000e 1444783694.2,1
TIME 0000000e 1444783696.2,1
TIME 0000000e 1444783697.8,1
TIME 0000000e 1444783698.2,1
TIME 0000000e 1444783700.2,1
TIME 0000000e 1444783701.2,1
TIME 0000000e 1444783702.2,1
TIME 0000000e 1444783702.6,1
TIME 0000000e 1444783705.2,1
TIME 0000000e 1444783706.2,1
TIME 0000000e 1444783707.2,1
TIME 0000000e 1444783710.8,1
TIME 0000000e 1444783711.2,1
TIME 0000000e 1444783713.2,1
TIME 0000000e 1444783714.2,1
TIME 0000000e 1444783715.2,1
TIME 0000000e 1444783715.6,1
TIME 0000000e 1444783716.2,1
TIME 0000000e 1444783718.2,1
TIME 0000000e 1444783719.2,1
TIME 0000000e 1444783720.2,1
TIME 0000000e 1444783721.2,1
TIME 0000000e 1444783723.8,1
TIME 0000000e 1444783724.2,1
TIME 0000000e 1444783726.2,1
TIME 0000000e 1444783727.2,1
TIME 0000000e 1444783728.2,1
TIME 0000000e 1444783728.6,1
TIME 0000000e 1444783731.2,1
TIME 0000000e 1444783732.2,1
TIME 0000000e 1444783733.2,1
TIME 0000000e 1444783736.2,1
TIME 0000000e 1444783736.8,1
TIME 0000000e 1444783737.2,1
TIME 0000000e 1444783739.2,1
TIME 0000000e 1444783740.2,1
TIME 0000000e 1444783741.2,1
TIME 0000000e 1444783741.6,1
TIME 0000000e 1444783744.2,1
TIME 0000000e 1444783745.2,1
TIME 0000000e 1444783746.2,1
TIME 0000000e 1444783749.8,1
TIME 0000000e 1444783750.2,1
TIME 0000000e 1444783751.2,1
TIME 0000000e 1444783752.2,1
TIME 0000000e 1444783753.2,1
TIME 0000000e 1444783754.2,1
TIME 0000000e 1444783754.6,1
TIME 0000000e 1444783756.2,1
TIME 0000000e 1444783757.2,1
TIME 0000000e 1444783758.2,1
TIME 0000000e 1444783759.2,1
TIME 0000000e 1444783761.2,1
TIME 0000000e 1444783762.8,1
TIME 0000000e 1444783763.2,1
TIME 0000000e 1444783765.2,1
TIME 0000000e 1444783766.2,1
TIME 0000000e 1444783767.2,1
TIME 0000000e 1444783767.6,1
TIME 0000000e 1444783770.2,1
TIME 0000000e 1444783771.2,1
TIME 0000000e 1444783772.2,1
TIME 0000000e 1444783775.8,1
TIME 0000000e 1444783776.2,1
TIME 0000000e 1444783778.2,1
TIME 0000000e 1444783779.2,1
TIME 0000000e 1444783780.2,1
TIME 0000000e 1444783780.6,1
TIME 0000000e 1444783781.2,1
TIME 0000000e 1444783783.2,1
TIME 0000000e 1444783784.2,1
TIME 0000000e 1444783785.2,1
TIME 0000000e 1444783786.2,1
TIME 0000000e 1444783788.8,1
TIME 0000000e 1444783789.2,1
TIME 0000000e 1444783791.2,1
TIME 0000000e 1444783792.2,1
TIME 0000000e 1444783793.2,1
TIME 0000000e 1444783793.6,1
TIME 0000000e 1444783796.2,1
TIME 0000000e 1444783797.2,1
TIME 0000000e 1444783798.2,1
TIME 0000000e 1444783801.2,1
TIME 0000000e 1444783801.8,1
TIME 0000000e 1444783802.2,1
TIME 0000000e 1444783804.2,1
TIME 0000000e 1444783805.2,1
TIME 0000000e 1444783806.2,1
TIME 0000000e 1444783806.6,1
TIME 0000000e 1444783809.2,1
TIME 0000000e 1444783810.2,1
TIME 0000000e 1444783811.2,1
TIME 0000000e 1444783814.8,1
TIME 0000000e 1444783815.2,1
TIME 0000000e 1444783816.2,1
TIME 0000000e 1444783817.2,1
TIME 0000000e 1444783818.2,1
TIME 0000000e 1444783819.2,1
TIME 0000000e 1444783819.6,1
TIME 0000000e 1444783821.2,1
TIME 0000000e 1444783822.2,1
TIME 0000000e 1444783823.2,1
TIME 0000000e 1444783824.2,1
TIME 0000000e 1444783826.2,1
TIME 0000000e 1444783827.8,1
TIME 0000000e 1444783828.2,1
TIME 0000000e 1444783830.2,1
TIME 0000000e 1444783831.2,1
TIME 0000000e 1444783832.2,1
TIME 0000000e 1444783832.6,1
TIME 0000000e 1444783835.2,1
TIME 0000000e 1444783836.2,1
TIME 0000000e 1444783837.2,1
TIME 0000000e 1444783840.8,1
TIME 0000000e 1444783841.2,1
TIME 0000000e 1444783843.2,1
TIME 0000000e 1444783844.2,1
TIME 0000000e 1444783845.2,1
TIME 0000000e 1444783845.6,1
TIME 0000000e 1444783846.2,1
TIME 0000000e 1444783848.2,1
TIME 0000000e 1444783849.2,1
TIME 0000000e 1444783850.2,1
TIME 0000000e 1444783851.2,1
TIME 0000000e 1444783853.8,1
TIME 0000000e 1444783854.2,1
TIME 0000000e 1444783856.2,1
TIME 0000000e 1444783857.2,1
TIME 0000000e 1444783858.2,1
TIME 0000000e 1444783858.6,1
TIME 0000000e 1444783861.2,1
TIME 0000000e 1444783862.2,1
TIME 0000000e 1444783863.2,1
TIME 0000000e 1444783866.2,1
TIME 0000000e 1444783866.8,1
TIME 0000000e 1444783867.2,1
TIME 0000000e 1444783869.2,1
TIME 0000000e 1444783870.2,1
TIME 0000000e 1444783871.2,1
TIME 0000000e 1444783871.6,1
TIME 0000000e 1444783874.2,1
TIME 0000000e 1444783875.2,1
TIME 0000000e 1444783876.2,1
TIME 0000000e 1444783879.8,1
TIME 0000000e 1444783880.2,1
TIME 0000000e 1444783881.2,1
TIME 0000000e 1444783882.2,1
TIME 0000000e 1444783883.2,1
TIME 0000000e 1444783884.2,1
TIME 0000000e 1444783884.6,1
TIME 0000000e 1444783886.2,1
TIME 0000000e 1444783887.2,1
TIME 0000000e 1444783888.2,1
TIME 0000000e 1444783889.2,1
TIME 0000000e 1444783891.2,1
TIME 0000000e 1444783892.8,1
TIME 0000000e 1444783893.2,1
TIME 0000000e 1444783895.2,1
TIME 0000000e 1444783896.2,1
TIME 0000000e 1444783897.2,1
TIME 0000000e 1444783897.6,1
TIME 0000000e 1444783900.2,1
TIME 0000000e 1444783901.2,1
TIME 0000000e 1444783902.2,1
TIME 0000000e 1444783905.8,1
TIME 0000000e 1444783906.2,1
TIME 0000000e 1444783908.2,1
TIME 0000000e 1444783909.2,1
TIME 0000000e 1444783910.2,1
TIME 0000000e 1444783910.6,1
TIME 0000000e 1444783911.2,1
TIME 0000000e 1444783913.2,1
TIME 0000000e 1444783914.2,1
TIME 0000000e 1444783915.2,1
TIME 0000000e 1444783916.2,1
TIME 0000000e 1444783918.8,1
TIME 0000000e 1444783919.2,1
TIME 0000000e 1444783921.2,1
TIME 0000000e 1444783922.2,1
TIME 0000000e 1444783923.2,1
TIME 0000000e 1444783923.6,1
TIME 0000000e 1444783926.2,1
TIME 0000000e 1444783927.2,1
TIME 0000000e 1444783928.2,1
TIME 0000000e 1444783931.2,1
TIME 0000000e 1444783931.8,1
TIME 0000000e 1444783932.2,1
TIME 0000000e 1444783934.2,1
TIME 0000000e 1444783935.2,1
TIME 0000000e 1444783936.2,1
TIME 0000000e 1444783936.6,1
TIME 0000000e 1444783939.2,1
TIME 0000000e 1444783940.2,1
TIME 0000000e 1444783941.2,1
TIME 0000000e 1444783944.8,1
TIME 0000000e 1444783945.2,1
TIME 0000000e 1444783946.2,1
TIME 0000000e 1444783947.2,1
TIME 0000000e 1444783948.2,1
TIME 0000000e 1444783949.2,1
TIME 0000000e 1444783949.6,1
TIME 0000000e 1444783951.2,1
TIME 0000000e 1444783952.2,1
TIME 0000000e 1444783953.2,1
TIME 0000000e 1444783954.2,1
TIME 0000000e 1444783956.2,1
TIME 0000000e 1444783957.8,1
TIME 0000000e 1444783958.2,1
TIME 0000000e 1444783960.2,1
TIME 0000000e 1444783961.2,1
TIME 0000000e 1444783962.2,1
TIME 0000000e 1444783962.6,1
TIME 0000000e 1444783965.2,1
TIME 0000000e 1444783966.2,1
TIME 0000000e 1444783967.2,1
TIME 0000000e 1444783970.8,1
TIME 0000000e 1444783971.2,1
TIME 0000000e 1444783973.2,1
TIME 0000000e 1444783974.2,1
TIME 0000000e 1444783975.2,1
TIME 0000000e 1444783975.6,1
TIME 0000000e 1444783976.2,1
TIME 0000000e 1444783978.2,1
TIME 0000000e 1444783979.2,1
TIME 0000000e 1444783980.2,1
TIME 0000000e 1444783981.2,1
TIME 0000000e 1444783983.8,1
TIME 0000000e 1444783984.2,1
TIME 0000000e 1444783986.2,1
TIME 0000000e 1444783987.2,1
TIME 0000000e 1444783988.2,1
TIME 0000000e 1444783988.6,1
TIME 0000000e 1444783991.2,1
TIME 0000000e 1444783992.2,1
TIME 0000000e 1444783993.2,1
TIME 0000000e 1444783996.2,1
TIME 0000000e 1444783996.8,1
TIME 0000000e 1444783997.2,1
TIME 0000000e 1444783999.2,1
TIME 0000000e 1444784000.2,1
TIME 0000000e 1444784001.2,1
TIME 0000000e 1444784001.6,1
TIME 0000000e 1444784004.2,1
TIME 0000000e 1444784005.2,1
TIME 0000000e 1444784006.2,1
TIME 0000000e 1444784009.8,1
TIME 0000000e 1444784010.2,1
TIME 0000000e 1444784011.2,1
TIME 0000000e 1444784012.2,1
TIME 0000000e 1444784013.2,1
TIME 0000000e 1444784014.2,1
TIME 0000000e 1444784014.6,1
TIME 0000000e 1444784016.2,1
TIME 0000000e 1444784017.2,1
TIME 0000000e 1444784018.2,1
TIME 0000000e 1444784019.2,1
TIME 0000000e 1444784021.2,1
TIME 0000000e 1444784022.8,1
TIME 0000000e 1444784023.2,1
TIME 0000000e 1444784025.2,1
TIME 0000000e 1444784026.2,1
TIME 0000000e 1444784027.2,1
TIME 0000000e 1444784027.6,1
TIME 0000000e 1444784030.2,1
TIME 0000000e 1444784031.2,1
TIME 0000000e 1444784032.2,1
TIME 0000000e 1444784035.8,1
TIME 0000000e 1444784036.2,1
TIME 0000000e 1444784038.2,1
TIME 0000000e 1444784039.2,1
TIME 0000000e 1444784040.2,1
TIME 0000000e 1444784040.6,1
TIME 0000000e 1444784041.2,1
TIME 0000000e 1444784043.2,1
TIME 0000000e 1444784044.2,1
TIME 0000000e 1444784045.2,1
TIME 0000000e 1444784046.2,1
TIME 0000000e 1444784048.8,1
TIME 0000000e 1444784049.2,1
TIME 0000000e 1444784051.2,1
TIME 0000000e 1444784052.2,1
TIME 0000000e 1444784053.2,1
TIME 0000000e 1444784053.6,1
TIME 0000000e 1444784056.2,1
TIME 0000000e 1444784057.2,1
TIME 0000000e 1444784058.2,1
TIME 0000000e 1444784061.2,1
TIME 0000000e 1444784061.8,1
TIME 0000000e 1444784062.2,1
TIME 0000000e 1444784064.2,1
TIME 0000000e 1444784065.2,1
TIME 0000000e 1444784066.2,1
TIME 0000000e 1444784066.6,1
TIME 0000000e 1444784069.2,1
TIME 0000000e 1444784070.2,1
TIME 0000000e 1444784071.2,1
TIME 0000000e 1444784074.8,1
TIME 0000000e 1444784075.2,1
TIME 0000000e 1444784076.2,1
TIME 0000000e 1444784077.2,1
TIME 0000000e 1444784078.2,1
TIME 0000000e 1444784079.2,1
TIME 0000000e 1444784079.6,1
TIME 0000000e 1444784081.2,1
TIME 0000000e 1444784082.2,1
TIME 0000000e 1444784083.2,1
TIME 0000000e 1444784084.2,1
TIME 0000000e 1444784086.2,1
TIME 0000000e 1444784087.8,1
TIME 0000000e 1444784088.2,1
TIME 0000000e 1444784090.2,1
TIME 0000000e 1444784091.2,1
TIME 0000000e 1444784092.2,1
TIME 0000000e 1444784092.6,1
TIME 0000000e 1444784095.2,1
TIME 0000000e 1444784096.2,1
TIME 0000000e 1444784097.2,1
TIME 0000000e 1444784100.8,1
TIME 0000000e 1444784101.2,1
TIME 0000000e 1444784103.2,1
TIME 0000000e 1444784104.2,1
TIME 0000000e 1444784105.2,1
TIME 0000000e 1444784105.6,1
TIME 0000000e 1444784106.2,1
TIME 0000000e 1444784108.2,1
TIME 0000000e 1444784109.2,1
TIME 0000000e 1444784110.2,1
TIME 0000000e 1444784111.2,1
TIME 0000000e 1444784113.8,1
TIME 0000000e 1444784114.2,1
TIME 0000000e 1444784116.2,1
TIME 0000000e 1444784117.2,1
TIME 0000000e 1444784118.2,1
TIME 0000000e 1444784118.6,1
TIME 0000000e 1444784121.2,1
TIME 0000000e 1444784122.2,1
TIME 0000000e 1444784123.2,1
TIME 0000000e 1444784126.2,1
TIME 0000000e 1444784126.8,1
TIME 0000000e 1444784127.2,1
TIME 0000000e 1444784129.2,1
TIME 0000000e 1444784130.2,1
TIME 0000000e 1444784131.2,1
TIME 0000000e 1444784131.6,1
TIME 0000000e 1444784134.2,1
TIME 0000000e 1444784135.2,1
TIME 0000000e 1444784136.2,1
TIME 0000000e 1444784139.8,1
TIME 0000000e 1444784140.2,1
TIME 0000000e 1444784141.2,1
TIME 0000000e 1444784142.2,1
TIME 0000000e 1444784143.2,1
TIME 0000000e 1444784144.2,1
TIME 0000000e 1444784144.6,1
TIME 0000000e 1444784146.2,1
TIME 0000000e 1444784147.2,1
TIME 0000000e 1444784148.2,1
TIME 0000000e 1444784149.2,1
TIME 0000000e 1444784151.2,1
TIME 0000000e 1444784152.8,1
TIME 0000000e 1444784153.2,1
TIME 0000000e 1444784155.2,1
TIME 0000000e 1444784156.2,1
TIME 0000000e 1444784157.2,1
TIME 0000000e 1444784157.6,1
TIME 0000000e 1444784160.2,1
TIME 0000000e 1444784161.2,1
TIME 0000000e 1444784162.2,1
TIME 0000000e 1444784165.8,1
TIME 0000000e 1444784166.2,1
TIME 0000000e 1444784168.2,1
TIME 0000000e 1444784169.2,1
TIME 0000000e 1444784170.2,1
TIME 0000000e 1444784170.6,1
TIME 0000000e 1444784171.2,1
TIME 0000000e 1444784173.2,1
TIME 0000000e 1444784174.2,1
TIME 0000000e 1444784175.2,1
TIME 0000000e 1444784176.2,1
TIME 0000000e 1444784178.8,1
TIME 0000000e 1444784179.2,1
TIME 0000000e 1444784181.2,1
TIME 0000000e 1444784182.2,1
TIME 0000000e 1444784183.2,1
TIME 0000000e 1444784183.6,1
TIME 0000000e 1444784186.2,1
TIME 0000000e 1444784187.2,1
TIME 0000000e 1444784188.2,1
TIME 0000000e 1444784191.2,1
TIME 0000000e 1444784191.8,1
TIME 0000000e 1444784192.2,1
TIME 0000000e 1444784194.2,1
TIME 0000000e 1444784195.2,1
TIME 0000000e 1444784196.2,1
TIME 0000000e 1444784196.6,1
TIME 0000000e 1444784199.2,1
TIME 0000000e 1444784200.2,1
TIME 0000000e 1444784201.2,1
TIME 0000000e 1444784204.8,1
TIME 0000000e 1444784205.2,1
TIME 0000000e 1444784206.2,1
TIME 0000000e 1444784207.2,1
TIME 0000000e 1444784208.2,1
TIME 0000000e 1444784209.2,1
TIME 0000000e 1444784209.6,1
TIME 0000000e 1444784211.2,1
TIME 0000000e 1444784212.2,1
TIME 0000000e 1444784213.2,1
TIME 0000000e 1444784214.2,1
TIME 0000000e 1444784216.2,1
TIME 0000000e 1444784217.8,1
TIME 0000000e 1444784218.2,1
TIME 0000000e 1444784220.2,1
TIME 0000000e 1444784221.2,1
TIME 0000000e 1444784222.2,1
TIME 0000000e 1444784222.6,1
TIME 0000000e 1444784225.2,1
TIME 0000000e 1444784226.2,1
TIME 0000000e 1444784227.2,1
TIME 0000000e 1444784230.8,1
TIME 0000000e 1444784231.2,1
TIME 0000000e 1444784233.2,1
TIME 0000000e 1444784234.2,1
TIME 0000000e 1444784235.2,1
TIME 0000000e 1444784235.6,1
TIME 0000000e 1444784236.2,1
TIME 0000000e 1444784238.2,1
TIME 0000000e 1444784239.2,1
TIME 0000000e 1444784240.2,1
TIME 0000000e 1444784241.2,1
TIME 0000000e 1444784243.8,1
TIME 0000000e 1444784244.2,1
TIME 0000000e 1444784246.2,1
TIME 0000000e 1444784247.2,1
TIME 0000000e 1444784248.2,1
TIME 0000000e 1444784248.6,1
TIME 0000000e 1444784251.2,1
TIME 0000000e 1444784252.2,1
TIME 0000000e 1444784253.2,1
TIME 0000000e 1444784256.2,1
TIME 0000000e 1444784256.8,1
TIME 0000000e 1444784257.2,1
TIME 0000000e 1444784259.2,1
TIME 0000000e 1444784260.2,1
TIME 0000000e 1444784261.2,1
TIME 0000000e 1444784261.6,1
TIME 0000000e 1444784264.2,1
TIME 0000000e 1444784265.2,1
TIME 0000000e 1444784266.2,1
TIME 0000000e 1444784269.8,1
TIME 0000000e 1444784270.2,1
TIME 0000000e 1444784271.2,1
TIME 0000000e 1444784272.2,1
TIME 0000000e 1444784273.2,1
TIME 0000000e 1444784274.2,1
TIME 0000000e 1444784274.6,1
TIME 0000000e 1444784276.2,1
TIME 0000000e 1444784277.2,1
TIME 0000000e 1444784278.2,1
TIME 0000000e 1444784279.2,1
TIME 0000000e 1444784281.2,1
TIME 0000000e 1444784282.8,1
TIME 0000000e 1444784283.2,1
TIME 0000000e 1444784285.2,1
TIME 0000000e 1444784286.2,1
TIME 0000000e 1444784287.2,1
TIME 0000000e 1444784287.6,1
TIME 0000000e 1444784290.2,1
TIME 0000000e 1444784291.2,1
TIME 0000000e 1444784292.2,1
TIME 0000000e 1444784295.8,1
TIME 0000000e 1444784296.2,1
TIME 0000000e 1444784298.2,1
TIME 0000000e 1444784299.2,1
TIME 0000000e 1444784300.2,1
TIME 0000000e 1444784300.6,1
TIME 0000000e 1444784301.2,1
TIME 0000000e 1444784303.2,1
TIME 0000000e 1444784304.2,1
TIME 0000000e 1444784305.2,1
TIME 0000000e 1444784305.6,1
DISC 0000003c 6795184426424404343:7018315910928271735 from 127.0.0.1:59481
DISC 00000027 6205124318637356809:3955614762 from R01
DISC 00000036 6205124318637356809:3482309487 from internal:R:control
DISC 00000027 6205124318637356809:1865318693 from S01
TIME 0000000e 1444784306.2,1
